REMARK  6 active torsions:
REMARK  status: ('A' for Active; 'I' for Inactive)
REMARK    1  A    between atoms: C18_4  and  C19_5 
REMARK    2  A    between atoms: C19_5  and  O20_7 
REMARK    3  A    between atoms: O20_7  and  C21_8 
REMARK    4  A    between atoms: C21_8  and  C22_9 
REMARK    5  A    between atoms: N9_20  and  C10_24 
REMARK    6  A    between atoms: C10_24  and  C11_25 
ROOT
ATOM      1  C2  ITA d   1     -23.064   6.485  -9.812  0.00  0.00     0.000 A 
ATOM      2  C1  ITA d   1     -22.245   7.424 -10.440  0.00  0.00     0.000 A 
ATOM      3  C26 ITA d   1     -22.013   8.665  -9.823  0.00  0.00     0.000 A 
ATOM      4  C18 ITA d   1     -21.188   9.627 -10.435  0.00  0.00     0.086 A 
ATOM      5  C17 ITA d   1     -20.606   9.323 -11.672  0.00  0.00    -0.009 A 
ATOM      6  C7  ITA d   1     -20.847   8.090 -12.264  0.00  0.00     0.086 A 
ATOM      7  C6  ITA d   1     -21.662   7.120 -11.680  0.00  0.00     0.000 A 
ATOM      8  C5  ITA d   1     -21.878   5.896 -12.317  0.00  0.00     0.000 A 
ATOM      9  C4  ITA d   1     -22.704   4.952 -11.683  0.00  0.00     0.000 A 
ATOM     10  C3  ITA d   1     -23.287   5.250 -10.449  0.00  0.00     0.000 A 
ATOM     11  C8  ITA d   1     -20.090   8.064 -13.575  0.00  0.00     0.720 A 
ATOM     12  O27 ITA d   1     -20.137   7.089 -14.305  0.00  0.00    -0.570 OA
ATOM     13  N9  ITA d   1     -19.419   9.201 -13.783  0.00  0.00    -0.730 N 
ATOM     14  S14 ITA d   1     -19.533  10.278 -12.706  0.00  0.00     1.447 S 
ATOM     15  O15 ITA d   1     -20.086  11.490 -13.237  0.00  0.00    -0.650 OA
ATOM     16  O16 ITA d   1     -18.241  10.320 -12.037  0.00  0.00    -0.650 OA
ENDROOT
BRANCH   4  17
ATOM     17  C19 ITA d   1     -20.967  10.944  -9.737  0.00  0.00     0.634 C 
ATOM     18  O25 ITA d   1     -20.075  11.689 -10.119  0.00  0.00    -0.570 OA
BRANCH  17  19
ATOM     19  O20 ITA d   1     -21.761  11.275  -8.702  0.00  0.00    -0.430 OA
BRANCH  19  20
ATOM     20  C21 ITA d   1     -21.422  12.586  -8.236  0.00  0.00     0.174 C 
BRANCH  20  21
ATOM     21  C22 ITA d   1     -20.448  12.573  -7.099  0.00  0.00     0.906 C 
ATOM     22  O23 ITA d   1     -19.965  11.405  -6.700  0.00  0.00    -0.900 OA
ATOM     23  O24 ITA d   1     -20.094  13.608  -6.538  0.00  0.00    -0.900 OA
ENDBRANCH  20  21
ENDBRANCH  19  20
ENDBRANCH  17  19
ENDBRANCH   4  17
BRANCH  13  24
ATOM     24  C10 ITA d   1     -18.953   9.351 -15.154  0.00  0.00     0.250 C 
BRANCH  24  25
ATOM     25  C11 ITA d   1     -17.681   8.558 -15.357  0.00  0.00     0.906 C 
ATOM     26  O12 ITA d   1     -17.035   8.256 -14.240  0.00  0.00    -0.900 OA
ATOM     27  O13 ITA d   1     -17.294   8.230 -16.461  0.00  0.00    -0.900 OA
ENDBRANCH  24  25
ENDBRANCH  13  24
TORSDOF 6
