@<TRIPOS>MOLECULE
1uze_1
    25    26     1
SMALL       
NO_CHARGES  
@<TRIPOS>ATOM
    1 O4     38.8040   33.6840   41.7050 O.3    1 EAL3002    0.0000
    2 O5     40.6740   32.5860   42.1270 O.3    1 EAL3002    0.0000
    3 N2     41.7570   34.8740   43.4350 N.3    1 EAL3002    0.0000
    4 C5     40.6840   35.0230   42.3630 C.3    1 EAL3002    0.0000
    5 C6     41.5090   35.5880   41.1790 C.3    1 EAL3002    0.0000
    6 C7     42.8210   35.7280   41.5570 C.3    1 EAL3002    0.0000
    7 C8     43.0940   35.3080   42.9330 C.3    1 EAL3002    0.0000
    8 C9     40.0410   33.6030   42.0400 C.3    1 EAL3002    0.0000
    9 O1     40.1920   34.0940   44.9270 O.3    1 EAL3002    0.0000
   10 C1     41.4150   34.3910   44.6760 C.3    1 EAL3002    0.0000
   11 C2     42.4920   34.1960   45.8130 C.3    1 EAL3002    0.0000
   12 C10    43.0740   32.7750   45.7120 C.3    1 EAL3002    0.0000
   13 N1     41.7710   34.4720   47.1180 N.3    1 EAL3002    0.0000
   14 C3     42.2070   36.6640   47.5300 C.3    1 EAL3002    0.0000
   15 C4     41.1980   35.5090   47.4850 C.3    1 EAL3002    0.0000
   16 O2     43.2850   36.5220   48.1860 O.3    1 EAL3002    0.0000
   17 O3     41.9880   37.6940   46.9090 O.3    1 EAL3002    0.0000
   18 C14    40.5060   35.7720   48.7790 C.3    1 EAL3002    0.0000
   19 C15    39.3030   36.6650   49.0290 C.3    1 EAL3002    0.0000
   20 C16    38.7470   36.7910   50.4110 C.3    1 EAL3002    0.0000
   21 C17    38.5240   35.6000   51.2570 C.3    1 EAL3002    0.0000
   22 C18    37.9710   35.7450   52.5950 C.3    1 EAL3002    0.0000
   23 C19    37.6300   37.0810   53.1110 C.3    1 EAL3002    0.0000
   24 C20    37.8500   38.2740   52.2740 C.3    1 EAL3002    0.0000
   25 C21    38.4070   38.1300   50.9260 C.3    1 EAL3002    0.0000
@<TRIPOS>BOND
    1     1     8 2 
    2     2     8 2 
    3     3     4 1 
    4     3     7 1 
    5     3    10 1 
    6     4     5 1 
    7     4     8 1 
    8     5     6 1 
    9     6     7 1 
   10     9    10 2 
   11    10    11 1 
   12    11    12 1 
   13    11    13 1 
   14    13    15 1 
   15    14    15 1 
   16    14    16 2 
   17    14    17 2 
   18    15    18 1 
   19    18    19 1 
   20    19    20 1 
   21    20    21 1 
   22    20    25 2 
   23    21    22 2 
   24    22    23 1 
   25    23    24 2 
   26    24    25 1 
@<TRIPOS>SUBSTRUCTURE
    1   EAL3002      1
@<TRIPOS>CRYSIN
   56.7200   85.3500  133.7300   90.0000   90.0000   90.0000     0     0

