@<TRIPOS>MOLECULE
1t40_2
    37    39     1
SMALL       
USER_CHARGES
@<TRIPOS>ATOM
    1 H21    15.5267   -9.0315   19.1975 H      1 ID5320     0.1500
    2 C2     15.7490   -9.4330   18.2100 C.ar   1 ID5320    -0.1500
    3 C4     16.7090   -8.7860   17.3680 C.ar   1 ID5320     0.0830
    4 O15    17.4100   -7.6270   17.7340 O.3    1 ID5320    -0.3630
    5 C20    16.9030   -6.7910   18.7820 C.3    1 ID5320     0.1740
    6 H201   16.6069   -7.4067   19.6313 H      1 ID5320     0.0000
    7 H202   17.6741   -6.0870   19.0949 H      1 ID5320     0.0000
    8 C32    15.6990   -6.0300   18.2590 C.2    1 ID5320     0.9060
    9 O33    15.3220   -5.7950   17.1080 O.co2   1 ID5320    -0.9000
   10 O34    14.9480   -5.5550   19.2740 O.co2   1 ID5320    -0.9000
   11 C7     17.0160   -9.3080   16.0570 C.ar   1 ID5320     0.0860
   12 C3     16.3320  -10.4880   15.6250 C.ar   1 ID5320    -0.1500
   13 H31    16.5479  -10.9000   14.6381 H      1 ID5320     0.1500
   14 C6     15.3760  -11.1360   16.4530 C.ar   1 ID5320    -0.1500
   15 H61    14.8639  -12.0347   16.1042 H      1 ID5320     0.1500
   16 C5     15.0900  -10.5960   17.7530 C.ar   1 ID5320     0.1900
   17 F9     14.1880  -11.1810   18.5750 F      1 ID5320    -0.1900
   18 C11    18.0090   -8.6890   15.1130 C.2    1 ID5320     0.5440
   19 O16    18.5170   -9.3520   14.1870 O.2    1 ID5320    -0.5700
   20 N36    18.3440   -7.3480   15.3130 N.am   1 ID5320    -0.7300
   21 H361   18.0721   -6.9073   16.1673 H      1 ID5320     0.3700
   22 C18    19.0650   -6.5780   14.3330 C.3    1 ID5320     0.4800
   23 H181   19.7441   -7.2467   13.8041 H      1 ID5320     0.0000
   24 H182   19.6408   -5.8134   14.8544 H      1 ID5320     0.0000
   25 C13    18.1820   -5.8950   13.3140 C.ar   1 ID5320     0.1980
   26 N21    18.6190   -4.9630   12.4760 N.ar   1 ID5320    -0.5650
   27 C26    17.5640   -4.5340   11.6670 C.ar   1 ID5320     0.2270
   28 C24    16.2950   -5.1940   11.9370 C.ar   1 ID5320     0.0400
   29 S22    16.5050   -6.3070   13.1860 S.3    1 ID5320    -0.0800
   30 C27    15.1370   -4.8360   11.1700 C.ar   1 ID5320     0.1900
   31 F14    13.9470   -5.4410   11.4080 F      1 ID5320    -0.1900
   32 C28    15.2330   -3.8480   10.1570 C.ar   1 ID5320    -0.1500
   33 H281   14.3503   -3.5802    9.5742 H      1 ID5320     0.1500
   34 C25    16.4890   -3.2000    9.8950 C.ar   1 ID5320     0.1900
   35 F8     16.5590   -2.2600    8.9250 F      1 ID5320    -0.1900
   36 C29    17.6630   -3.5330   10.6420 C.ar   1 ID5320     0.1900
   37 F23    18.8220   -2.9220   10.3870 F      1 ID5320    -0.1900
@<TRIPOS>BOND
    1     1     2 1 
    2     2     3 2 
    3     2    16 1 
    4     3     4 1 
    5     3    11 1 
    6     4     5 1 
    7     5     6 1 
    8     5     7 1 
    9     5     8 1 
   10     8     9 2 
   11     8    10 2 
   12    11    12 2 
   13    11    18 1 
   14    12    13 1 
   15    12    14 1 
   16    14    15 1 
   17    14    16 2 
   18    16    17 1 
   19    18    19 2 
   20    18    20 1 
   21    20    21 1 
   22    20    22 1 
   23    22    23 1 
   24    22    24 1 
   25    22    25 1 
   26    25    26 2 
   27    25    29 1 
   28    26    27 1 
   29    27    28 2 
   30    27    36 1 
   31    28    29 1 
   32    28    30 1 
   33    30    31 1 
   34    30    32 2 
   35    32    33 1 
   36    32    34 1 
   37    34    35 1 
   38    34    36 2 
   39    36    37 1 
@<TRIPOS>SUBSTRUCTURE
    1   ID5320       1
@<TRIPOS>CRYSIN
   50.0000   67.2400   47.7800   90.0000   92.5000   90.0000     4     0

