@<TRIPOS>MOLECULE
1el3_2
    48    49     1
SMALL       
USER_CHARGES
@<TRIPOS>ATOM
    1 H11    22.9155  -17.5611   16.2162 H      1 I84320     0.1500
    2 C1     21.9700  -17.0320   16.3330 C.ar   1 I84320    -0.1500
    3 C2     21.7140  -15.8670   15.5630 C.ar   1 I84320    -0.1440
    4 C11    22.7370  -15.3450   14.5830 C.3    1 I84320     0.1440
    5 H111   22.2679  -15.2026   13.6095 H      1 I84320     0.0000
    6 H112   23.5523  -16.0627   14.4920 H      1 I84320     0.0000
    7 H113   23.1293  -14.3928   14.9400 H      1 I84320     0.0000
    8 C3     20.4690  -15.1690   15.7140 C.ar   1 I84320    -0.1440
    9 C4     19.5060  -15.6700   16.6430 C.ar   1 I84320    -0.1500
   10 H41    18.5535  -15.1540   16.7662 H      1 I84320     0.1500
   11 C5     19.7780  -16.8320   17.4030 C.ar   1 I84320    -0.1500
   12 H51    19.0363  -17.2056   18.1095 H      1 I84320     0.1500
   13 C6     21.0080  -17.5110   17.2470 C.ar   1 I84320    -0.1500
   14 H61    21.2125  -18.4072   17.8329 H      1 I84320     0.1500
   15 C15    20.1400  -13.9010   14.9060 C.3    1 I84320     0.2050
   16 H151   21.0788  -13.4586   14.5728 H      1 I84320     0.0000
   17 H152   19.5493  -14.1958   14.0387 H      1 I84320     0.0000
   18 C16    19.3430  -12.8140   15.6880 C.2    1 I84320     0.5690
   19 O21    19.5270  -12.5820   16.8850 O.2    1 I84320    -0.5700
   20 N19    18.4450  -12.1690   14.8910 N.am   1 I84320    -0.5470
   21 H191   18.2778  -12.5281   13.9712 H      1 I84320     0.3700
   22 C20    17.7570  -11.0480   15.2930 C.ar   1 I84320     0.1170
   23 C22    18.1750   -9.7700   14.8680 C.ar   1 I84320    -0.1500
   24 H221   19.0440   -9.6774   14.2170 H      1 I84320     0.1500
   25 C23    17.4790   -8.6090   15.2750 C.ar   1 I84320    -0.1440
   26 C33    17.9740   -7.2700   14.7890 C.3    1 I84320     0.1440
   27 H331   18.2186   -6.6406   15.6447 H      1 I84320     0.0000
   28 H332   17.1970   -6.7893   14.1947 H      1 I84320     0.0000
   29 H333   18.8642   -7.4123   14.1764 H      1 I84320     0.0000
   30 C24    16.3300   -8.7180   16.1330 C.ar   1 I84320    -0.0090
   31 C25    15.9160  -10.0390   16.5590 C.ar   1 I84320    -0.1440
   32 C26    16.6330  -11.1740   16.1330 C.ar   1 I84320    -0.1500
   33 H261   16.3126  -12.1652   16.4569 H      1 I84320     0.1500
   34 C29    14.7340  -10.2690   17.4510 C.3    1 I84320     0.1440
   35 H291   14.6154  -11.3379   17.6286 H      1 I84320     0.0000
   36 H292   13.8361   -9.8784   16.9722 H      1 I84320     0.0000
   37 H293   14.8908   -9.7580   18.4010 H      1 I84320     0.0000
   38 S37    15.4470   -7.2130   16.6400 S.3    1 I84320     1.4470
   39 O45    14.3650   -7.5250   17.5250 O.2    1 I84320    -0.6500
   40 O46    15.2210   -6.3770   15.4980 O.2    1 I84320    -0.6500
   41 N38    16.5520   -6.3080   17.6050 N.am   1 I84320    -0.9140
   42 H381   17.0023   -5.4852   17.2608 H      1 I84320     0.4200
   43 C39    16.7870   -6.8090   18.9360 C.3    1 I84320     0.2500
   44 H391   16.7079   -7.8961   18.9327 H      1 I84320     0.0000
   45 H392   17.7860   -6.5184   19.2609 H      1 I84320     0.0000
   46 C40    15.7590   -6.2320   19.8910 C.2    1 I84320     0.9060
   47 O43    16.1070   -6.4410   21.1730 O.co2   1 I84320    -0.9000
   48 O44    14.7770   -5.6490   19.5600 O.co2   1 I84320    -0.9000
@<TRIPOS>BOND
    1     1     2 1 
    2     2     3 2 
    3     2    13 1 
    4     3     4 1 
    5     3     8 1 
    6     4     5 1 
    7     4     6 1 
    8     4     7 1 
    9     8     9 2 
   10     8    15 1 
   11     9    10 1 
   12     9    11 1 
   13    11    12 1 
   14    11    13 2 
   15    13    14 1 
   16    15    16 1 
   17    15    17 1 
   18    15    18 1 
   19    18    19 2 
   20    18    20 1 
   21    20    21 1 
   22    20    22 1 
   23    22    23 1 
   24    22    32 2 
   25    23    24 1 
   26    23    25 2 
   27    25    26 1 
   28    25    30 1 
   29    26    27 1 
   30    26    28 1 
   31    26    29 1 
   32    30    31 2 
   33    30    38 1 
   34    31    32 1 
   35    31    34 1 
   36    32    33 1 
   37    34    35 1 
   38    34    36 1 
   39    34    37 1 
   40    38    39 2 
   41    38    40 2 
   42    38    41 1 
   43    41    42 1 
   44    41    43 1 
   45    43    44 1 
   46    43    45 1 
   47    43    46 1 
   48    46    47 2 
   49    46    48 2 
@<TRIPOS>SUBSTRUCTURE
    1   I84320       1
@<TRIPOS>CRYSIN
   49.9300   67.2100   47.6500   90.0000   92.5000   90.0000     4     0

@<TRIPOS>MOLECULE
1pwl_2
    39    42     1
SMALL       
USER_CHARGES
@<TRIPOS>ATOM
    1 H21    18.8339   14.3520  -10.4881 H      1 BFI320     0.1500
    2 C2     19.1850   13.3210  -10.5100 C.ar   1 BFI320    -0.1500
    3 C4     18.7130   12.4290  -11.4710 C.ar   1 BFI320    -0.1440
    4 C8     17.6590   12.8780  -12.4540 C.3    1 BFI320     0.2660
    5 C18    17.9230   14.2460  -13.0640 C.3    1 BFI320     0.0610
    6 H181   18.9739   14.5190  -12.9683 H      1 BFI320     0.0000
    7 H182   17.6369   14.2655  -14.1156 H      1 BFI320     0.0000
    8 C22    17.2570   11.8500  -13.4760 C.2    1 BFI320     0.5690
    9 O13    16.5400   12.1490  -14.4010 O.2    1 BFI320    -0.5700
   10 C39    16.3330   13.1540  -11.6420 C.2    1 BFI320     0.5690
   11 O37    15.7060   12.2610  -11.1360 O.2    1 BFI320    -0.5700
   12 N14    16.1160   14.4760  -11.5330 N.am   1 BFI320    -0.4900
   13 H141   15.3746   14.8879  -11.0037 H      1 BFI320     0.3700
   14 C21    17.0430   15.1760  -12.2440 C.2    1 BFI320     0.5690
   15 O15    17.1230   16.3950  -12.2710 O.2    1 BFI320    -0.5700
   16 C5     20.0960   12.8720   -9.5980 C.ar   1 BFI320     0.1900
   17 F9     20.5420   13.7530   -8.6720 F      1 BFI320    -0.1900
   18 C6     20.6080   11.5930   -9.5530 C.ar   1 BFI320    -0.1500
   19 H61    21.3200   11.2856   -8.7886 H      1 BFI320     0.1500
   20 C3     20.1650   10.7120  -10.5390 C.ar   1 BFI320    -0.1500
   21 H31    20.5705    9.7004  -10.5800 H      1 BFI320     0.1500
   22 C7     19.1880   11.1150  -11.4950 C.ar   1 BFI320     0.0860
   23 C11    18.6880   10.1280  -12.4400 C.2    1 BFI320     0.5440
   24 O16    19.0500    8.9650  -12.4330 O.2    1 BFI320    -0.5700
   25 N17    17.7330   10.5290  -13.3440 N.am   1 BFI320    -0.4200
   26 C23    17.1590    9.5370  -14.2950 C.3    1 BFI320     0.4440
   27 H231   16.8648   10.0520  -15.2095 H      1 BFI320     0.0000
   28 H232   17.9170    8.7889  -14.5270 H      1 BFI320     0.0000
   29 C25    15.9500    8.8460  -13.7100 C.ar   1 BFI320    -0.1440
   30 C29    15.0650    8.2050  -14.5460 C.ar   1 BFI320     0.1900
   31 F33    15.2930    8.3120  -15.8870 F      1 BFI320    -0.1900
   32 C28    15.6320    8.7720  -12.3500 C.ar   1 BFI320    -0.1500
   33 H281   16.2904    9.2591  -11.6334 H      1 BFI320     0.1500
   34 C31    14.5150    8.1050  -11.8770 C.ar   1 BFI320    -0.1500
   35 H311   14.2928    8.0728  -10.8111 H      1 BFI320     0.1500
   36 C27    13.6770    7.4720  -12.8010 C.ar   1 BFI320     0.1110
   37 BR36   12.1390    6.5940  -12.1750 Br     1 BFI320    -0.1110
   38 C30    13.9140    7.5230  -14.1500 C.ar   1 BFI320    -0.1500
   39 H301   13.2413    7.0568  -14.8725 H      1 BFI320     0.1500
@<TRIPOS>BOND
    1     1     2 1 
    2     2     3 2 
    3     2    16 1 
    4     3     4 1 
    5     3    22 1 
    6     4     5 1 
    7     4     8 1 
    8     4    10 1 
    9     5     6 1 
   10     5     7 1 
   11     5    14 1 
   12     8     9 2 
   13     8    25 1 
   14    10    11 2 
   15    10    12 1 
   16    12    13 1 
   17    12    14 1 
   18    14    15 2 
   19    16    17 1 
   20    16    18 2 
   21    18    19 1 
   22    18    20 1 
   23    20    21 1 
   24    20    22 2 
   25    22    23 1 
   26    23    24 2 
   27    23    25 1 
   28    25    26 1 
   29    26    27 1 
   30    26    28 1 
   31    26    29 1 
   32    29    30 2 
   33    29    32 1 
   34    30    31 1 
   35    30    38 1 
   36    32    33 1 
   37    32    34 2 
   38    34    35 1 
   39    34    36 1 
   40    36    37 1 
   41    36    38 2 
   42    38    39 1 
@<TRIPOS>SUBSTRUCTURE
    1   BFI320       1
@<TRIPOS>CRYSIN
   40.0190   47.1280   47.3670   75.7100   67.4800   76.7500     1     0

@<TRIPOS>MOLECULE
1t40_2
    37    39     1
SMALL       
USER_CHARGES
@<TRIPOS>ATOM
    1 H21    15.5267   -9.0315   19.1975 H      1 ID5320     0.1500
    2 C2     15.7490   -9.4330   18.2100 C.ar   1 ID5320    -0.1500
    3 C4     16.7090   -8.7860   17.3680 C.ar   1 ID5320     0.0830
    4 O15    17.4100   -7.6270   17.7340 O.3    1 ID5320    -0.3630
    5 C20    16.9030   -6.7910   18.7820 C.3    1 ID5320     0.1740
    6 H201   16.6069   -7.4067   19.6313 H      1 ID5320     0.0000
    7 H202   17.6741   -6.0870   19.0949 H      1 ID5320     0.0000
    8 C32    15.6990   -6.0300   18.2590 C.2    1 ID5320     0.9060
    9 O33    15.3220   -5.7950   17.1080 O.co2   1 ID5320    -0.9000
   10 O34    14.9480   -5.5550   19.2740 O.co2   1 ID5320    -0.9000
   11 C7     17.0160   -9.3080   16.0570 C.ar   1 ID5320     0.0860
   12 C3     16.3320  -10.4880   15.6250 C.ar   1 ID5320    -0.1500
   13 H31    16.5479  -10.9000   14.6381 H      1 ID5320     0.1500
   14 C6     15.3760  -11.1360   16.4530 C.ar   1 ID5320    -0.1500
   15 H61    14.8639  -12.0347   16.1042 H      1 ID5320     0.1500
   16 C5     15.0900  -10.5960   17.7530 C.ar   1 ID5320     0.1900
   17 F9     14.1880  -11.1810   18.5750 F      1 ID5320    -0.1900
   18 C11    18.0090   -8.6890   15.1130 C.2    1 ID5320     0.5440
   19 O16    18.5170   -9.3520   14.1870 O.2    1 ID5320    -0.5700
   20 N36    18.3440   -7.3480   15.3130 N.am   1 ID5320    -0.7300
   21 H361   18.0721   -6.9073   16.1673 H      1 ID5320     0.3700
   22 C18    19.0650   -6.5780   14.3330 C.3    1 ID5320     0.4800
   23 H181   19.7441   -7.2467   13.8041 H      1 ID5320     0.0000
   24 H182   19.6408   -5.8134   14.8544 H      1 ID5320     0.0000
   25 C13    18.1820   -5.8950   13.3140 C.ar   1 ID5320     0.1980
   26 N21    18.6190   -4.9630   12.4760 N.ar   1 ID5320    -0.5650
   27 C26    17.5640   -4.5340   11.6670 C.ar   1 ID5320     0.2270
   28 C24    16.2950   -5.1940   11.9370 C.ar   1 ID5320     0.0400
   29 S22    16.5050   -6.3070   13.1860 S.3    1 ID5320    -0.0800
   30 C27    15.1370   -4.8360   11.1700 C.ar   1 ID5320     0.1900
   31 F14    13.9470   -5.4410   11.4080 F      1 ID5320    -0.1900
   32 C28    15.2330   -3.8480   10.1570 C.ar   1 ID5320    -0.1500
   33 H281   14.3503   -3.5802    9.5742 H      1 ID5320     0.1500
   34 C25    16.4890   -3.2000    9.8950 C.ar   1 ID5320     0.1900
   35 F8     16.5590   -2.2600    8.9250 F      1 ID5320    -0.1900
   36 C29    17.6630   -3.5330   10.6420 C.ar   1 ID5320     0.1900
   37 F23    18.8220   -2.9220   10.3870 F      1 ID5320    -0.1900
@<TRIPOS>BOND
    1     1     2 1 
    2     2     3 2 
    3     2    16 1 
    4     3     4 1 
    5     3    11 1 
    6     4     5 1 
    7     5     6 1 
    8     5     7 1 
    9     5     8 1 
   10     8     9 2 
   11     8    10 2 
   12    11    12 2 
   13    11    18 1 
   14    12    13 1 
   15    12    14 1 
   16    14    15 1 
   17    14    16 2 
   18    16    17 1 
   19    18    19 2 
   20    18    20 1 
   21    20    21 1 
   22    20    22 1 
   23    22    23 1 
   24    22    24 1 
   25    22    25 1 
   26    25    26 2 
   27    25    29 1 
   28    26    27 1 
   29    27    28 2 
   30    27    36 1 
   31    28    29 1 
   32    28    30 1 
   33    30    31 1 
   34    30    32 2 
   35    32    33 1 
   36    32    34 1 
   37    34    35 1 
   38    34    36 2 
   39    36    37 1 
@<TRIPOS>SUBSTRUCTURE
    1   ID5320       1
@<TRIPOS>CRYSIN
   50.0000   67.2400   47.7800   90.0000   92.5000   90.0000     4     0

@<TRIPOS>MOLECULE
1uze_1
    25    26     1
SMALL       
NO_CHARGES  
@<TRIPOS>ATOM
    1 O4     38.8040   33.6840   41.7050 O.3    1 EAL3002    0.0000
    2 O5     40.6740   32.5860   42.1270 O.3    1 EAL3002    0.0000
    3 N2     41.7570   34.8740   43.4350 N.3    1 EAL3002    0.0000
    4 C5     40.6840   35.0230   42.3630 C.3    1 EAL3002    0.0000
    5 C6     41.5090   35.5880   41.1790 C.3    1 EAL3002    0.0000
    6 C7     42.8210   35.7280   41.5570 C.3    1 EAL3002    0.0000
    7 C8     43.0940   35.3080   42.9330 C.3    1 EAL3002    0.0000
    8 C9     40.0410   33.6030   42.0400 C.3    1 EAL3002    0.0000
    9 O1     40.1920   34.0940   44.9270 O.3    1 EAL3002    0.0000
   10 C1     41.4150   34.3910   44.6760 C.3    1 EAL3002    0.0000
   11 C2     42.4920   34.1960   45.8130 C.3    1 EAL3002    0.0000
   12 C10    43.0740   32.7750   45.7120 C.3    1 EAL3002    0.0000
   13 N1     41.7710   34.4720   47.1180 N.3    1 EAL3002    0.0000
   14 C3     42.2070   36.6640   47.5300 C.3    1 EAL3002    0.0000
   15 C4     41.1980   35.5090   47.4850 C.3    1 EAL3002    0.0000
   16 O2     43.2850   36.5220   48.1860 O.3    1 EAL3002    0.0000
   17 O3     41.9880   37.6940   46.9090 O.3    1 EAL3002    0.0000
   18 C14    40.5060   35.7720   48.7790 C.3    1 EAL3002    0.0000
   19 C15    39.3030   36.6650   49.0290 C.3    1 EAL3002    0.0000
   20 C16    38.7470   36.7910   50.4110 C.3    1 EAL3002    0.0000
   21 C17    38.5240   35.6000   51.2570 C.3    1 EAL3002    0.0000
   22 C18    37.9710   35.7450   52.5950 C.3    1 EAL3002    0.0000
   23 C19    37.6300   37.0810   53.1110 C.3    1 EAL3002    0.0000
   24 C20    37.8500   38.2740   52.2740 C.3    1 EAL3002    0.0000
   25 C21    38.4070   38.1300   50.9260 C.3    1 EAL3002    0.0000
@<TRIPOS>BOND
    1     1     8 2 
    2     2     8 2 
    3     3     4 1 
    4     3     7 1 
    5     3    10 1 
    6     4     5 1 
    7     4     8 1 
    8     5     6 1 
    9     6     7 1 
   10     9    10 2 
   11    10    11 1 
   12    11    12 1 
   13    11    13 1 
   14    13    15 1 
   15    14    15 1 
   16    14    16 2 
   17    14    17 2 
   18    15    18 1 
   19    18    19 1 
   20    19    20 1 
   21    20    21 1 
   22    20    25 2 
   23    21    22 2 
   24    22    23 1 
   25    23    24 2 
   26    24    25 1 
@<TRIPOS>SUBSTRUCTURE
    1   EAL3002      1
@<TRIPOS>CRYSIN
   56.7200   85.3500  133.7300   90.0000   90.0000   90.0000     0     0

@<TRIPOS>MOLECULE
1x98_2
    30    32     1
SMALL       
USER_CHARGES
@<TRIPOS>ATOM
    1 H161   20.9017  -15.6755   15.4882 H      1 FIS1320    0.1500
    2 C16    20.9970  -15.9200   16.5470 C.ar   1 FIS1320   -0.1500
    3 C15    21.8630  -16.8930   16.9530 C.ar   1 FIS1320   -0.1500
    4 H151   22.5617  -17.3414   16.2461 H      1 FIS1320    0.1500
    5 C14    21.8400  -17.2990   18.2600 C.ar   1 FIS1320    0.1900
    6 F17    22.6420  -18.2630   18.5940 F      1 FIS1320   -0.1900
    7 C11    20.2320  -15.2410   17.4990 C.ar   1 FIS1320    0.0830
    8 C12    20.2000  -15.6510   18.8180 C.ar   1 FIS1320   -0.1440
    9 C13    21.0250  -16.7220   19.2020 C.ar   1 FIS1320   -0.1500
   10 H131   21.0169  -17.0887   20.2278 H      1 FIS1320    0.1500
   11 C7I    19.3610  -14.9370   19.8720 C.3    1 FIS1320    0.5050
   12 C5     20.0710  -14.8110   21.1190 C.2    1 FIS1320    0.5690
   13 O6I    21.1460  -14.2930   21.3390 O.2    1 FIS1320   -0.5700
   14 N1I    18.2210  -15.7470   20.2370 N.am   1 FIS1320   -0.7300
   15 H1I1   17.5900  -16.1718   19.5852 H      1 FIS1320    0.3700
   16 C2I    18.1270  -15.8500   21.5620 C.2    1 FIS1320    0.6900
   17 O3I    17.2340  -16.4210   22.1620 O.2    1 FIS1320   -0.5700
   18 N4     19.2820  -15.3000   22.1270 N.am   1 FIS1320   -0.4900
   19 H41    19.4953  -15.2698   23.1023 H      1 FIS1320    0.3700
   20 C8I    19.0060  -13.5340   19.3060 C.3    1 FIS1320    0.0000
   21 H8I1   18.2273  -13.0743   19.9146 H      1 FIS1320    0.0000
   22 H8I2   19.8913  -12.8981   19.3076 H      1 FIS1320    0.0000
   23 C9     18.5090  -13.7220   17.8890 C.3    1 FIS1320    0.3410
   24 H91    17.6792  -14.4297   17.9290 H      1 FIS1320    0.0000
   25 O10    19.5260  -14.1860   17.0030 O.3    1 FIS1320   -0.3630
   26 C19    18.1930  -12.3470   17.3510 C.2    1 FIS1320    0.5690
   27 O20    17.2840  -11.6920   17.9520 O.2    1 FIS1320   -0.5700
   28 N21    18.8480  -11.8120   16.3340 N.am   1 FIS1320   -0.8000
   29 H211   18.6393  -10.8928   16.0000 H      1 FIS1320    0.3700
   30 H212   19.5684  -12.4176   15.9959 H      1 FIS1320    0.3700
@<TRIPOS>BOND
    1     1     2 1 
    2     2     3 1 
    3     2     7 2 
    4     3     4 1 
    5     3     5 2 
    6     5     6 1 
    7     5     9 1 
    8     7     8 1 
    9     7    25 1 
   10     8     9 2 
   11     8    11 1 
   12     9    10 1 
   13    11    12 1 
   14    11    14 1 
   15    11    20 1 
   16    12    13 2 
   17    12    18 1 
   18    14    15 1 
   19    14    16 1 
   20    16    17 2 
   21    16    18 1 
   22    18    19 1 
   23    20    21 1 
   24    20    22 1 
   25    20    23 1 
   26    23    24 1 
   27    23    25 1 
   28    23    26 1 
   29    26    27 2 
   30    26    28 1 
   31    28    29 1 
   32    28    30 1 
@<TRIPOS>SUBSTRUCTURE
    1   FIS1320      1
@<TRIPOS>CRYSIN
   49.4330   66.8920   47.4690   90.0000   91.6600   90.0000     4     0

@<TRIPOS>MOLECULE
2agt_2
    30    32     1
SMALL       
USER_CHARGES
@<TRIPOS>ATOM
    1 H131   14.9982   -8.8110   18.7026 H      1 FID320     0.1500
    2 C13    15.3460   -9.2400   17.7640 C.ar   1 FID320    -0.1500
    3 C14    14.9360  -10.4930   17.3850 C.ar   1 FID320     0.1900
    4 F17    14.0990  -11.1740   18.2150 F      1 FID320    -0.1900
    5 C15    15.3230  -11.0790   16.2290 C.ar   1 FID320    -0.1500
    6 H151   14.9737  -12.0750   15.9509 H      1 FID320     0.1500
    7 C12    16.1990   -8.5290   16.9490 C.ar   1 FID320    -0.1440
    8 C11    16.6130   -9.0890   15.7600 C.ar   1 FID320     0.0830
    9 C16    16.1770  -10.3640   15.4160 C.ar   1 FID320    -0.1500
   10 H161   16.5175  -10.8098   14.4803 H      1 FID320     0.1500
   11 C7I    16.6130   -7.0900   17.2880 C.3    1 FID320     0.5050
   12 C5     15.4040   -6.1850   16.9930 C.2    1 FID320     0.5690
   13 O6I    14.9520   -5.9750   15.8850 O.2    1 FID320    -0.5700
   14 N1I    16.7600   -6.8880   18.7200 N.am   1 FID320    -0.7300
   15 H1I1   17.5241   -7.2351   19.2619 H      1 FID320     0.3700
   16 C2I    15.7350   -6.1760   19.2210 C.2    1 FID320     0.6900
   17 O3I    15.5400   -5.9250   20.4080 O.2    1 FID320    -0.5700
   18 N4     14.9510   -5.7300   18.1710 N.am   1 FID320    -0.4900
   19 H41    14.1475   -5.1439   18.2761 H      1 FID320     0.3700
   20 C8I    17.8700   -6.6860   16.5260 C.3    1 FID320     0.0000
   21 H8I1   17.9917   -5.6044   16.5846 H      1 FID320     0.0000
   22 H8I2   18.7341   -7.1738   16.9772 H      1 FID320     0.0000
   23 C9     17.7700   -7.0990   15.0640 C.3    1 FID320     0.3410
   24 H91    16.9253   -6.5692   14.6218 H      1 FID320     0.0000
   25 O10    17.5050   -8.4820   14.9050 O.3    1 FID320    -0.3630
   26 C19    19.0510   -6.7260   14.3580 C.2    1 FID320     0.5690
   27 O20    19.4270   -5.5570   14.3610 O.2    1 FID320    -0.5700
   28 N21    19.7020   -7.7680   13.7930 N.am   1 FID320    -0.8000
   29 H211   20.5501   -7.5776   13.2986 H      1 FID320     0.3700
   30 H212   19.3531   -8.7042   13.8344 H      1 FID320     0.3700
@<TRIPOS>BOND
    1     1     2 1 
    2     2     3 1 
    3     2     7 2 
    4     3     4 1 
    5     3     5 2 
    6     5     6 1 
    7     5     9 1 
    8     7     8 1 
    9     7    11 1 
   10     8     9 2 
   11     8    25 1 
   12     9    10 1 
   13    11    12 1 
   14    11    14 1 
   15    11    20 1 
   16    12    13 2 
   17    12    18 1 
   18    14    15 1 
   19    14    16 1 
   20    16    17 2 
   21    16    18 1 
   22    18    19 1 
   23    20    21 1 
   24    20    22 1 
   25    20    23 1 
   26    23    24 1 
   27    23    25 1 
   28    23    26 1 
   29    26    27 2 
   30    26    28 1 
   31    28    29 1 
   32    28    30 1 
@<TRIPOS>SUBSTRUCTURE
    1   FID320       1
@<TRIPOS>CRYSIN
   49.1180   66.7240   47.0920   90.0000   92.7900   90.0000     4     0

@<TRIPOS>MOLECULE
2nvc_2
    36    38     1
SMALL       
USER_CHARGES
@<TRIPOS>ATOM
    1 H21   -23.5229    6.7026   -8.8483 H      1 ITA600     0.1500
    2 C2    -23.0640    6.4850   -9.8120 C.ar   1 ITA600    -0.1500
    3 C1    -22.2450    7.4240  -10.4400 C.ar   1 ITA600     0.0000
    4 C26   -22.0130    8.6650   -9.8230 C.ar   1 ITA600    -0.1500
    5 H261  -22.4774    8.8837   -8.8622 H      1 ITA600     0.1500
    6 C18   -21.1880    9.6270  -10.4350 C.ar   1 ITA600     0.0860
    7 C19   -20.9670   10.9440   -9.7370 C.2    1 ITA600     0.6340
    8 O25   -20.0750   11.6890  -10.1190 O.2    1 ITA600    -0.5700
    9 O20   -21.7610   11.2750   -8.7020 O.3    1 ITA600    -0.4300
   10 C21   -21.4220   12.5860   -8.2360 C.3    1 ITA600     0.1740
   11 H211  -20.9827   13.1448   -9.0624 H      1 ITA600     0.0000
   12 H212  -22.3341   13.0830   -7.9055 H      1 ITA600     0.0000
   13 C22   -20.4480   12.5730   -7.0990 C.2    1 ITA600     0.9060
   14 O23   -19.9650   11.4050   -6.7000 O.co2   1 ITA600    -0.9000
   15 O24   -20.0940   13.6080   -6.5380 O.co2   1 ITA600    -0.9000
   16 C17   -20.6060    9.3230  -11.6720 C.ar   1 ITA600    -0.0090
   17 C7    -20.8470    8.0900  -12.2640 C.ar   1 ITA600     0.0860
   18 C6    -21.6620    7.1200  -11.6800 C.ar   1 ITA600     0.0000
   19 C5    -21.8780    5.8960  -12.3170 C.ar   1 ITA600    -0.1500
   20 H51   -21.4189    5.6775  -13.2819 H      1 ITA600     0.1500
   21 C4    -22.7040    4.9520  -11.6830 C.ar   1 ITA600    -0.1500
   22 H41   -22.8908    3.9859  -12.1554 H      1 ITA600     0.1500
   23 C3    -23.2870    5.2500  -10.4490 C.ar   1 ITA600    -0.1500
   24 H31   -23.9291    4.5094   -9.9704 H      1 ITA600     0.1500
   25 C8    -20.0900    8.0640  -13.5750 C.2    1 ITA600     0.7200
   26 O27   -20.1370    7.0890  -14.3050 O.2    1 ITA600    -0.5700
   27 N9    -19.4190    9.2010  -13.7830 N.am   1 ITA600    -0.7300
   28 S14   -19.5330   10.2780  -12.7060 S.3    1 ITA600     1.4470
   29 O15   -20.0860   11.4900  -13.2370 O.2    1 ITA600    -0.6500
   30 O16   -18.2410   10.3200  -12.0370 O.2    1 ITA600    -0.6500
   31 C10   -18.9530    9.3510  -15.1540 C.3    1 ITA600     0.2500
   32 H101  -19.7192    8.9858  -15.8378 H      1 ITA600     0.0000
   33 H102  -18.7580   10.4042  -15.3559 H      1 ITA600     0.0000
   34 C11   -17.6810    8.5580  -15.3570 C.2    1 ITA600     0.9060
   35 O12   -17.0350    8.2560  -14.2400 O.co2   1 ITA600    -0.9000
   36 O13   -17.2940    8.2300  -16.4610 O.co2   1 ITA600    -0.9000
@<TRIPOS>BOND
    1     1     2 1 
    2     2     3 2 
    3     2    23 1 
    4     3     4 1 
    5     3    18 1 
    6     4     5 1 
    7     4     6 2 
    8     6     7 1 
    9     6    16 1 
   10     7     8 2 
   11     7     9 1 
   12     9    10 1 
   13    10    11 1 
   14    10    12 1 
   15    10    13 1 
   16    13    14 2 
   17    13    15 2 
   18    16    17 2 
   19    16    28 1 
   20    17    18 1 
   21    17    25 1 
   22    18    19 2 
   23    19    20 1 
   24    19    21 1 
   25    21    22 1 
   26    21    23 2 
   27    23    24 1 
   28    25    26 2 
   29    25    27 1 
   30    27    28 1 
   31    27    31 1 
   32    28    29 2 
   33    28    30 2 
   34    31    32 1 
   35    31    33 1 
   36    31    34 1 
   37    34    35 2 
   38    34    36 2 
@<TRIPOS>SUBSTRUCTURE
    1   ITA600       1
@<TRIPOS>CRYSIN
   39.9500   47.0900   46.8700   76.2400   77.1600   67.8200     1     0

