@<TRIPOS>MOLECULE
1pwl_2
    39    42     1
SMALL       
USER_CHARGES
@<TRIPOS>ATOM
    1 H21    18.8339   14.3520  -10.4881 H      1 BFI320     0.1500
    2 C2     19.1850   13.3210  -10.5100 C.ar   1 BFI320    -0.1500
    3 C4     18.7130   12.4290  -11.4710 C.ar   1 BFI320    -0.1440
    4 C8     17.6590   12.8780  -12.4540 C.3    1 BFI320     0.2660
    5 C18    17.9230   14.2460  -13.0640 C.3    1 BFI320     0.0610
    6 H181   18.9739   14.5190  -12.9683 H      1 BFI320     0.0000
    7 H182   17.6369   14.2655  -14.1156 H      1 BFI320     0.0000
    8 C22    17.2570   11.8500  -13.4760 C.2    1 BFI320     0.5690
    9 O13    16.5400   12.1490  -14.4010 O.2    1 BFI320    -0.5700
   10 C39    16.3330   13.1540  -11.6420 C.2    1 BFI320     0.5690
   11 O37    15.7060   12.2610  -11.1360 O.2    1 BFI320    -0.5700
   12 N14    16.1160   14.4760  -11.5330 N.am   1 BFI320    -0.4900
   13 H141   15.3746   14.8879  -11.0037 H      1 BFI320     0.3700
   14 C21    17.0430   15.1760  -12.2440 C.2    1 BFI320     0.5690
   15 O15    17.1230   16.3950  -12.2710 O.2    1 BFI320    -0.5700
   16 C5     20.0960   12.8720   -9.5980 C.ar   1 BFI320     0.1900
   17 F9     20.5420   13.7530   -8.6720 F      1 BFI320    -0.1900
   18 C6     20.6080   11.5930   -9.5530 C.ar   1 BFI320    -0.1500
   19 H61    21.3200   11.2856   -8.7886 H      1 BFI320     0.1500
   20 C3     20.1650   10.7120  -10.5390 C.ar   1 BFI320    -0.1500
   21 H31    20.5705    9.7004  -10.5800 H      1 BFI320     0.1500
   22 C7     19.1880   11.1150  -11.4950 C.ar   1 BFI320     0.0860
   23 C11    18.6880   10.1280  -12.4400 C.2    1 BFI320     0.5440
   24 O16    19.0500    8.9650  -12.4330 O.2    1 BFI320    -0.5700
   25 N17    17.7330   10.5290  -13.3440 N.am   1 BFI320    -0.4200
   26 C23    17.1590    9.5370  -14.2950 C.3    1 BFI320     0.4440
   27 H231   16.8648   10.0520  -15.2095 H      1 BFI320     0.0000
   28 H232   17.9170    8.7889  -14.5270 H      1 BFI320     0.0000
   29 C25    15.9500    8.8460  -13.7100 C.ar   1 BFI320    -0.1440
   30 C29    15.0650    8.2050  -14.5460 C.ar   1 BFI320     0.1900
   31 F33    15.2930    8.3120  -15.8870 F      1 BFI320    -0.1900
   32 C28    15.6320    8.7720  -12.3500 C.ar   1 BFI320    -0.1500
   33 H281   16.2904    9.2591  -11.6334 H      1 BFI320     0.1500
   34 C31    14.5150    8.1050  -11.8770 C.ar   1 BFI320    -0.1500
   35 H311   14.2928    8.0728  -10.8111 H      1 BFI320     0.1500
   36 C27    13.6770    7.4720  -12.8010 C.ar   1 BFI320     0.1110
   37 BR36   12.1390    6.5940  -12.1750 Br     1 BFI320    -0.1110
   38 C30    13.9140    7.5230  -14.1500 C.ar   1 BFI320    -0.1500
   39 H301   13.2413    7.0568  -14.8725 H      1 BFI320     0.1500
@<TRIPOS>BOND
    1     1     2 1 
    2     2     3 2 
    3     2    16 1 
    4     3     4 1 
    5     3    22 1 
    6     4     5 1 
    7     4     8 1 
    8     4    10 1 
    9     5     6 1 
   10     5     7 1 
   11     5    14 1 
   12     8     9 2 
   13     8    25 1 
   14    10    11 2 
   15    10    12 1 
   16    12    13 1 
   17    12    14 1 
   18    14    15 2 
   19    16    17 1 
   20    16    18 2 
   21    18    19 1 
   22    18    20 1 
   23    20    21 1 
   24    20    22 2 
   25    22    23 1 
   26    23    24 2 
   27    23    25 1 
   28    25    26 1 
   29    26    27 1 
   30    26    28 1 
   31    26    29 1 
   32    29    30 2 
   33    29    32 1 
   34    30    31 1 
   35    30    38 1 
   36    32    33 1 
   37    32    34 2 
   38    34    35 1 
   39    34    36 1 
   40    36    37 1 
   41    36    38 2 
   42    38    39 1 
@<TRIPOS>SUBSTRUCTURE
    1   BFI320       1
@<TRIPOS>CRYSIN
   40.0190   47.1280   47.3670   75.7100   67.4800   76.7500     1     0

