@<TRIPOS>MOLECULE
2nvc_2
    36    38     1
SMALL       
USER_CHARGES
@<TRIPOS>ATOM
    1 H21   -23.5229    6.7026   -8.8483 H      1 ITA600     0.1500
    2 C2    -23.0640    6.4850   -9.8120 C.ar   1 ITA600    -0.1500
    3 C1    -22.2450    7.4240  -10.4400 C.ar   1 ITA600     0.0000
    4 C26   -22.0130    8.6650   -9.8230 C.ar   1 ITA600    -0.1500
    5 H261  -22.4774    8.8837   -8.8622 H      1 ITA600     0.1500
    6 C18   -21.1880    9.6270  -10.4350 C.ar   1 ITA600     0.0860
    7 C19   -20.9670   10.9440   -9.7370 C.2    1 ITA600     0.6340
    8 O25   -20.0750   11.6890  -10.1190 O.2    1 ITA600    -0.5700
    9 O20   -21.7610   11.2750   -8.7020 O.3    1 ITA600    -0.4300
   10 C21   -21.4220   12.5860   -8.2360 C.3    1 ITA600     0.1740
   11 H211  -20.9827   13.1448   -9.0624 H      1 ITA600     0.0000
   12 H212  -22.3341   13.0830   -7.9055 H      1 ITA600     0.0000
   13 C22   -20.4480   12.5730   -7.0990 C.2    1 ITA600     0.9060
   14 O23   -19.9650   11.4050   -6.7000 O.co2   1 ITA600    -0.9000
   15 O24   -20.0940   13.6080   -6.5380 O.co2   1 ITA600    -0.9000
   16 C17   -20.6060    9.3230  -11.6720 C.ar   1 ITA600    -0.0090
   17 C7    -20.8470    8.0900  -12.2640 C.ar   1 ITA600     0.0860
   18 C6    -21.6620    7.1200  -11.6800 C.ar   1 ITA600     0.0000
   19 C5    -21.8780    5.8960  -12.3170 C.ar   1 ITA600    -0.1500
   20 H51   -21.4189    5.6775  -13.2819 H      1 ITA600     0.1500
   21 C4    -22.7040    4.9520  -11.6830 C.ar   1 ITA600    -0.1500
   22 H41   -22.8908    3.9859  -12.1554 H      1 ITA600     0.1500
   23 C3    -23.2870    5.2500  -10.4490 C.ar   1 ITA600    -0.1500
   24 H31   -23.9291    4.5094   -9.9704 H      1 ITA600     0.1500
   25 C8    -20.0900    8.0640  -13.5750 C.2    1 ITA600     0.7200
   26 O27   -20.1370    7.0890  -14.3050 O.2    1 ITA600    -0.5700
   27 N9    -19.4190    9.2010  -13.7830 N.am   1 ITA600    -0.7300
   28 S14   -19.5330   10.2780  -12.7060 S.3    1 ITA600     1.4470
   29 O15   -20.0860   11.4900  -13.2370 O.2    1 ITA600    -0.6500
   30 O16   -18.2410   10.3200  -12.0370 O.2    1 ITA600    -0.6500
   31 C10   -18.9530    9.3510  -15.1540 C.3    1 ITA600     0.2500
   32 H101  -19.7192    8.9858  -15.8378 H      1 ITA600     0.0000
   33 H102  -18.7580   10.4042  -15.3559 H      1 ITA600     0.0000
   34 C11   -17.6810    8.5580  -15.3570 C.2    1 ITA600     0.9060
   35 O12   -17.0350    8.2560  -14.2400 O.co2   1 ITA600    -0.9000
   36 O13   -17.2940    8.2300  -16.4610 O.co2   1 ITA600    -0.9000
@<TRIPOS>BOND
    1     1     2 1 
    2     2     3 2 
    3     2    23 1 
    4     3     4 1 
    5     3    18 1 
    6     4     5 1 
    7     4     6 2 
    8     6     7 1 
    9     6    16 1 
   10     7     8 2 
   11     7     9 1 
   12     9    10 1 
   13    10    11 1 
   14    10    12 1 
   15    10    13 1 
   16    13    14 2 
   17    13    15 2 
   18    16    17 2 
   19    16    28 1 
   20    17    18 1 
   21    17    25 1 
   22    18    19 2 
   23    19    20 1 
   24    19    21 1 
   25    21    22 1 
   26    21    23 2 
   27    23    24 1 
   28    25    26 2 
   29    25    27 1 
   30    27    28 1 
   31    27    31 1 
   32    28    29 2 
   33    28    30 2 
   34    31    32 1 
   35    31    33 1 
   36    31    34 1 
   37    34    35 2 
   38    34    36 2 
@<TRIPOS>SUBSTRUCTURE
    1   ITA600       1
@<TRIPOS>CRYSIN
   39.9500   47.0900   46.8700   76.2400   77.1600   67.8200     1     0

