@<TRIPOS>MOLECULE
1x98_2
    30    32     1
SMALL       
USER_CHARGES
@<TRIPOS>ATOM
    1 H161   20.9017  -15.6755   15.4882 H      1 FIS1320    0.1500
    2 C16    20.9970  -15.9200   16.5470 C.ar   1 FIS1320   -0.1500
    3 C15    21.8630  -16.8930   16.9530 C.ar   1 FIS1320   -0.1500
    4 H151   22.5617  -17.3414   16.2461 H      1 FIS1320    0.1500
    5 C14    21.8400  -17.2990   18.2600 C.ar   1 FIS1320    0.1900
    6 F17    22.6420  -18.2630   18.5940 F      1 FIS1320   -0.1900
    7 C11    20.2320  -15.2410   17.4990 C.ar   1 FIS1320    0.0830
    8 C12    20.2000  -15.6510   18.8180 C.ar   1 FIS1320   -0.1440
    9 C13    21.0250  -16.7220   19.2020 C.ar   1 FIS1320   -0.1500
   10 H131   21.0169  -17.0887   20.2278 H      1 FIS1320    0.1500
   11 C7I    19.3610  -14.9370   19.8720 C.3    1 FIS1320    0.5050
   12 C5     20.0710  -14.8110   21.1190 C.2    1 FIS1320    0.5690
   13 O6I    21.1460  -14.2930   21.3390 O.2    1 FIS1320   -0.5700
   14 N1I    18.2210  -15.7470   20.2370 N.am   1 FIS1320   -0.7300
   15 H1I1   17.5900  -16.1718   19.5852 H      1 FIS1320    0.3700
   16 C2I    18.1270  -15.8500   21.5620 C.2    1 FIS1320    0.6900
   17 O3I    17.2340  -16.4210   22.1620 O.2    1 FIS1320   -0.5700
   18 N4     19.2820  -15.3000   22.1270 N.am   1 FIS1320   -0.4900
   19 H41    19.4953  -15.2698   23.1023 H      1 FIS1320    0.3700
   20 C8I    19.0060  -13.5340   19.3060 C.3    1 FIS1320    0.0000
   21 H8I1   18.2273  -13.0743   19.9146 H      1 FIS1320    0.0000
   22 H8I2   19.8913  -12.8981   19.3076 H      1 FIS1320    0.0000
   23 C9     18.5090  -13.7220   17.8890 C.3    1 FIS1320    0.3410
   24 H91    17.6792  -14.4297   17.9290 H      1 FIS1320    0.0000
   25 O10    19.5260  -14.1860   17.0030 O.3    1 FIS1320   -0.3630
   26 C19    18.1930  -12.3470   17.3510 C.2    1 FIS1320    0.5690
   27 O20    17.2840  -11.6920   17.9520 O.2    1 FIS1320   -0.5700
   28 N21    18.8480  -11.8120   16.3340 N.am   1 FIS1320   -0.8000
   29 H211   18.6393  -10.8928   16.0000 H      1 FIS1320    0.3700
   30 H212   19.5684  -12.4176   15.9959 H      1 FIS1320    0.3700
@<TRIPOS>BOND
    1     1     2 1 
    2     2     3 1 
    3     2     7 2 
    4     3     4 1 
    5     3     5 2 
    6     5     6 1 
    7     5     9 1 
    8     7     8 1 
    9     7    25 1 
   10     8     9 2 
   11     8    11 1 
   12     9    10 1 
   13    11    12 1 
   14    11    14 1 
   15    11    20 1 
   16    12    13 2 
   17    12    18 1 
   18    14    15 1 
   19    14    16 1 
   20    16    17 2 
   21    16    18 1 
   22    18    19 1 
   23    20    21 1 
   24    20    22 1 
   25    20    23 1 
   26    23    24 1 
   27    23    25 1 
   28    23    26 1 
   29    26    27 2 
   30    26    28 1 
   31    28    29 1 
   32    28    30 1 
@<TRIPOS>SUBSTRUCTURE
    1   FIS1320      1
@<TRIPOS>CRYSIN
   49.4330   66.8920   47.4690   90.0000   91.6600   90.0000     4     0

