1el3_2
 OpenBabel04212515593D

 48 49  0  0  0  0  0  0  0  0999 V2000
   22.9155  -17.5611   16.2162 H   0  0  0  0  0  0  0  0  0  0  0  0
   21.9700  -17.0320   16.3330 C   0  0  0  0  0  0  0  0  0  0  0  0
   21.7140  -15.8670   15.5630 C   0  0  0  0  0  0  0  0  0  0  0  0
   22.7370  -15.3450   14.5830 C   0  0  0  0  0  0  0  0  0  0  0  0
   22.2679  -15.2026   13.6095 H   0  0  0  0  0  0  0  0  0  0  0  0
   23.5523  -16.0627   14.4920 H   0  0  0  0  0  0  0  0  0  0  0  0
   23.1293  -14.3928   14.9400 H   0  0  0  0  0  0  0  0  0  0  0  0
   20.4690  -15.1690   15.7140 C   0  0  0  0  0  0  0  0  0  0  0  0
   19.5060  -15.6700   16.6430 C   0  0  0  0  0  0  0  0  0  0  0  0
   18.5535  -15.1540   16.7662 H   0  0  0  0  0  0  0  0  0  0  0  0
   19.7780  -16.8320   17.4030 C   0  0  0  0  0  0  0  0  0  0  0  0
   19.0363  -17.2056   18.1095 H   0  0  0  0  0  0  0  0  0  0  0  0
   21.0080  -17.5110   17.2470 C   0  0  0  0  0  0  0  0  0  0  0  0
   21.2125  -18.4072   17.8329 H   0  0  0  0  0  0  0  0  0  0  0  0
   20.1400  -13.9010   14.9060 C   0  0  0  0  0  0  0  0  0  0  0  0
   21.0788  -13.4586   14.5728 H   0  0  0  0  0  0  0  0  0  0  0  0
   19.5493  -14.1958   14.0387 H   0  0  0  0  0  0  0  0  0  0  0  0
   19.3430  -12.8140   15.6880 C   0  0  0  0  0  0  0  0  0  0  0  0
   19.5270  -12.5820   16.8850 O   0  0  0  0  0  0  0  0  0  0  0  0
   18.4450  -12.1690   14.8910 N   0  0  0  0  0  0  0  0  0  0  0  0
   18.2778  -12.5281   13.9712 H   0  0  0  0  0  0  0  0  0  0  0  0
   17.7570  -11.0480   15.2930 C   0  0  0  0  0  0  0  0  0  0  0  0
   18.1750   -9.7700   14.8680 C   0  0  0  0  0  0  0  0  0  0  0  0
   19.0440   -9.6774   14.2170 H   0  0  0  0  0  0  0  0  0  0  0  0
   17.4790   -8.6090   15.2750 C   0  0  0  0  0  0  0  0  0  0  0  0
   17.9740   -7.2700   14.7890 C   0  0  0  0  0  0  0  0  0  0  0  0
   18.2186   -6.6406   15.6447 H   0  0  0  0  0  0  0  0  0  0  0  0
   17.1970   -6.7893   14.1947 H   0  0  0  0  0  0  0  0  0  0  0  0
   18.8642   -7.4123   14.1764 H   0  0  0  0  0  0  0  0  0  0  0  0
   16.3300   -8.7180   16.1330 C   0  0  0  0  0  0  0  0  0  0  0  0
   15.9160  -10.0390   16.5590 C   0  0  0  0  0  0  0  0  0  0  0  0
   16.6330  -11.1740   16.1330 C   0  0  0  0  0  0  0  0  0  0  0  0
   16.3126  -12.1652   16.4569 H   0  0  0  0  0  0  0  0  0  0  0  0
   14.7340  -10.2690   17.4510 C   0  0  0  0  0  0  0  0  0  0  0  0
   14.6154  -11.3379   17.6286 H   0  0  0  0  0  0  0  0  0  0  0  0
   13.8361   -9.8784   16.9722 H   0  0  0  0  0  0  0  0  0  0  0  0
   14.8908   -9.7580   18.4010 H   0  0  0  0  0  0  0  0  0  0  0  0
   15.4470   -7.2130   16.6400 S   0  0  0  0  0  0  0  0  0  0  0  0
   14.3650   -7.5250   17.5250 O   0  0  0  0  0  0  0  0  0  0  0  0
   15.2210   -6.3770   15.4980 O   0  0  0  0  0  0  0  0  0  0  0  0
   16.5520   -6.3080   17.6050 N   0  0  0  0  0  0  0  0  0  0  0  0
   17.0023   -5.4852   17.2608 H   0  0  0  0  0  0  0  0  0  0  0  0
   16.7870   -6.8090   18.9360 C   0  0  0  0  0  0  0  0  0  0  0  0
   16.7079   -7.8961   18.9327 H   0  0  0  0  0  0  0  0  0  0  0  0
   17.7860   -6.5184   19.2609 H   0  0  0  0  0  0  0  0  0  0  0  0
   15.7590   -6.2320   19.8910 C   0  0  0  0  0  0  0  0  0  0  0  0
   16.1070   -6.4410   21.1730 O   0  0  0  0  0  0  0  0  0  0  0  0
   14.7770   -5.6490   19.5600 O   0  0  0  0  0  0  0  0  0  0  0  0
  1  2  1  0  0  0  0
  2  3  2  0  0  0  0
  2 13  1  0  0  0  0
  3  4  1  0  0  0  0
  3  8  1  0  0  0  0
  4  5  1  0  0  0  0
  4  6  1  0  0  0  0
  4  7  1  0  0  0  0
  8  9  2  0  0  0  0
  8 15  1  0  0  0  0
  9 10  1  0  0  0  0
  9 11  1  0  0  0  0
 11 12  1  0  0  0  0
 11 13  2  0  0  0  0
 13 14  1  0  0  0  0
 15 16  1  0  0  0  0
 15 17  1  0  0  0  0
 15 18  1  0  0  0  0
 18 19  2  0  0  0  0
 18 20  1  0  0  0  0
 20 21  1  0  0  0  0
 20 22  1  0  0  0  0
 22 23  1  0  0  0  0
 22 32  2  0  0  0  0
 23 24  1  0  0  0  0
 23 25  2  0  0  0  0
 25 26  1  0  0  0  0
 25 30  1  0  0  0  0
 26 27  1  0  0  0  0
 26 28  1  0  0  0  0
 26 29  1  0  0  0  0
 30 31  2  0  0  0  0
 30 38  1  0  0  0  0
 31 32  1  0  0  0  0
 31 34  1  0  0  0  0
 32 33  1  0  0  0  0
 34 35  1  0  0  0  0
 34 36  1  0  0  0  0
 34 37  1  0  0  0  0
 38 39  2  0  0  0  0
 38 40  2  0  0  0  0
 38 41  1  0  0  0  0
 41 42  1  0  0  0  0
 41 43  1  0  0  0  0
 43 44  1  0  0  0  0
 43 45  1  0  0  0  0
 43 46  1  0  0  0  0
 46 47  2  0  0  0  0
 46 48  2  0  0  0  0
M  END
>  <IX> 
9357

> <Type> 
L

$$$$
1pwl_2
 OpenBabel04212515593D

 39 42  0  0  1  0  0  0  0  0999 V2000
   18.8339   14.3520  -10.4881 H   0  0  0  0  0  0  0  0  0  0  0  0
   19.1850   13.3210  -10.5100 C   0  0  0  0  0  0  0  0  0  0  0  0
   18.7130   12.4290  -11.4710 C   0  0  0  0  0  0  0  0  0  0  0  0
   17.6590   12.8780  -12.4540 C   0  0  1  0  0  0  0  0  0  0  0  0
   17.9230   14.2460  -13.0640 C   0  0  0  0  0  0  0  0  0  0  0  0
   18.9739   14.5190  -12.9683 H   0  0  0  0  0  0  0  0  0  0  0  0
   17.6369   14.2655  -14.1156 H   0  0  0  0  0  0  0  0  0  0  0  0
   17.2570   11.8500  -13.4760 C   0  0  0  0  0  0  0  0  0  0  0  0
   16.5400   12.1490  -14.4010 O   0  0  0  0  0  0  0  0  0  0  0  0
   16.3330   13.1540  -11.6420 C   0  0  0  0  0  0  0  0  0  0  0  0
   15.7060   12.2610  -11.1360 O   0  0  0  0  0  0  0  0  0  0  0  0
   16.1160   14.4760  -11.5330 N   0  0  0  0  0  0  0  0  0  0  0  0
   15.3746   14.8879  -11.0037 H   0  0  0  0  0  0  0  0  0  0  0  0
   17.0430   15.1760  -12.2440 C   0  0  0  0  0  0  0  0  0  0  0  0
   17.1230   16.3950  -12.2710 O   0  0  0  0  0  0  0  0  0  0  0  0
   20.0960   12.8720   -9.5980 C   0  0  0  0  0  0  0  0  0  0  0  0
   20.5420   13.7530   -8.6720 F   0  0  0  0  0  0  0  0  0  0  0  0
   20.6080   11.5930   -9.5530 C   0  0  0  0  0  0  0  0  0  0  0  0
   21.3200   11.2856   -8.7886 H   0  0  0  0  0  0  0  0  0  0  0  0
   20.1650   10.7120  -10.5390 C   0  0  0  0  0  0  0  0  0  0  0  0
   20.5705    9.7004  -10.5800 H   0  0  0  0  0  0  0  0  0  0  0  0
   19.1880   11.1150  -11.4950 C   0  0  0  0  0  0  0  0  0  0  0  0
   18.6880   10.1280  -12.4400 C   0  0  0  0  0  0  0  0  0  0  0  0
   19.0500    8.9650  -12.4330 O   0  0  0  0  0  0  0  0  0  0  0  0
   17.7330   10.5290  -13.3440 N   0  0  0  0  0  0  0  0  0  0  0  0
   17.1590    9.5370  -14.2950 C   0  0  0  0  0  0  0  0  0  0  0  0
   16.8648   10.0520  -15.2095 H   0  0  0  0  0  0  0  0  0  0  0  0
   17.9170    8.7889  -14.5270 H   0  0  0  0  0  0  0  0  0  0  0  0
   15.9500    8.8460  -13.7100 C   0  0  0  0  0  0  0  0  0  0  0  0
   15.0650    8.2050  -14.5460 C   0  0  0  0  0  0  0  0  0  0  0  0
   15.2930    8.3120  -15.8870 F   0  0  0  0  0  0  0  0  0  0  0  0
   15.6320    8.7720  -12.3500 C   0  0  0  0  0  0  0  0  0  0  0  0
   16.2904    9.2591  -11.6334 H   0  0  0  0  0  0  0  0  0  0  0  0
   14.5150    8.1050  -11.8770 C   0  0  0  0  0  0  0  0  0  0  0  0
   14.2928    8.0728  -10.8111 H   0  0  0  0  0  0  0  0  0  0  0  0
   13.6770    7.4720  -12.8010 C   0  0  0  0  0  0  0  0  0  0  0  0
   12.1390    6.5940  -12.1750 Br  0  0  0  0  0  0  0  0  0  0  0  0
   13.9140    7.5230  -14.1500 C   0  0  0  0  0  0  0  0  0  0  0  0
   13.2413    7.0568  -14.8725 H   0  0  0  0  0  0  0  0  0  0  0  0
  1  2  1  0  0  0  0
  2  3  2  0  0  0  0
  2 16  1  0  0  0  0
  3 22  1  0  0  0  0
  4  3  1  1  0  0  0
  4  5  1  0  0  0  0
  4  8  1  0  0  0  0
  4 10  1  0  0  0  0
  5  6  1  0  0  0  0
  5  7  1  0  0  0  0
  5 14  1  0  0  0  0
  8  9  2  0  0  0  0
  8 25  1  0  0  0  0
 10 11  2  0  0  0  0
 10 12  1  0  0  0  0
 12 13  1  0  0  0  0
 12 14  1  0  0  0  0
 14 15  2  0  0  0  0
 16 17  1  0  0  0  0
 16 18  2  0  0  0  0
 18 19  1  0  0  0  0
 18 20  1  0  0  0  0
 20 21  1  0  0  0  0
 20 22  2  0  0  0  0
 22 23  1  0  0  0  0
 23 24  2  0  0  0  0
 23 25  1  0  0  0  0
 25 26  1  0  0  0  0
 26 27  1  0  0  0  0
 26 28  1  0  0  0  0
 26 29  1  0  0  0  0
 29 30  2  0  0  0  0
 29 32  1  0  0  0  0
 30 31  1  0  0  0  0
 30 38  1  0  0  0  0
 32 33  1  0  0  0  0
 32 34  2  0  0  0  0
 34 35  1  0  0  0  0
 34 36  1  0  0  0  0
 36 37  1  0  0  0  0
 36 38  2  0  0  0  0
 38 39  1  0  0  0  0
M  END
>  <IX> 
9358

> <Type> 
L

$$$$
1t40_2
 OpenBabel04212515593D

 37 39  0  0  0  0  0  0  0  0999 V2000
   15.5267   -9.0315   19.1975 H   0  0  0  0  0  0  0  0  0  0  0  0
   15.7490   -9.4330   18.2100 C   0  0  0  0  0  0  0  0  0  0  0  0
   16.7090   -8.7860   17.3680 C   0  0  0  0  0  0  0  0  0  0  0  0
   17.4100   -7.6270   17.7340 O   0  0  0  0  0  0  0  0  0  0  0  0
   16.9030   -6.7910   18.7820 C   0  0  0  0  0  0  0  0  0  0  0  0
   16.6069   -7.4067   19.6313 H   0  0  0  0  0  0  0  0  0  0  0  0
   17.6741   -6.0870   19.0949 H   0  0  0  0  0  0  0  0  0  0  0  0
   15.6990   -6.0300   18.2590 C   0  0  0  0  0  0  0  0  0  0  0  0
   15.3220   -5.7950   17.1080 O   0  0  0  0  0  0  0  0  0  0  0  0
   14.9480   -5.5550   19.2740 O   0  0  0  0  0  0  0  0  0  0  0  0
   17.0160   -9.3080   16.0570 C   0  0  0  0  0  0  0  0  0  0  0  0
   16.3320  -10.4880   15.6250 C   0  0  0  0  0  0  0  0  0  0  0  0
   16.5479  -10.9000   14.6381 H   0  0  0  0  0  0  0  0  0  0  0  0
   15.3760  -11.1360   16.4530 C   0  0  0  0  0  0  0  0  0  0  0  0
   14.8639  -12.0347   16.1042 H   0  0  0  0  0  0  0  0  0  0  0  0
   15.0900  -10.5960   17.7530 C   0  0  0  0  0  0  0  0  0  0  0  0
   14.1880  -11.1810   18.5750 F   0  0  0  0  0  0  0  0  0  0  0  0
   18.0090   -8.6890   15.1130 C   0  0  0  0  0  0  0  0  0  0  0  0
   18.5170   -9.3520   14.1870 O   0  0  0  0  0  0  0  0  0  0  0  0
   18.3440   -7.3480   15.3130 N   0  0  0  0  0  0  0  0  0  0  0  0
   18.0721   -6.9073   16.1673 H   0  0  0  0  0  0  0  0  0  0  0  0
   19.0650   -6.5780   14.3330 C   0  0  0  0  0  0  0  0  0  0  0  0
   19.7441   -7.2467   13.8041 H   0  0  0  0  0  0  0  0  0  0  0  0
   19.6408   -5.8134   14.8544 H   0  0  0  0  0  0  0  0  0  0  0  0
   18.1820   -5.8950   13.3140 C   0  0  0  0  0  0  0  0  0  0  0  0
   18.6190   -4.9630   12.4760 N   0  0  0  0  0  0  0  0  0  0  0  0
   17.5640   -4.5340   11.6670 C   0  0  0  0  0  0  0  0  0  0  0  0
   16.2950   -5.1940   11.9370 C   0  0  0  0  0  0  0  0  0  0  0  0
   16.5050   -6.3070   13.1860 S   0  0  0  0  0  0  0  0  0  0  0  0
   15.1370   -4.8360   11.1700 C   0  0  0  0  0  0  0  0  0  0  0  0
   13.9470   -5.4410   11.4080 F   0  0  0  0  0  0  0  0  0  0  0  0
   15.2330   -3.8480   10.1570 C   0  0  0  0  0  0  0  0  0  0  0  0
   14.3503   -3.5802    9.5742 H   0  0  0  0  0  0  0  0  0  0  0  0
   16.4890   -3.2000    9.8950 C   0  0  0  0  0  0  0  0  0  0  0  0
   16.5590   -2.2600    8.9250 F   0  0  0  0  0  0  0  0  0  0  0  0
   17.6630   -3.5330   10.6420 C   0  0  0  0  0  0  0  0  0  0  0  0
   18.8220   -2.9220   10.3870 F   0  0  0  0  0  0  0  0  0  0  0  0
  1  2  1  0  0  0  0
  2  3  2  0  0  0  0
  2 16  1  0  0  0  0
  3  4  1  0  0  0  0
  3 11  1  0  0  0  0
  4  5  1  0  0  0  0
  5  6  1  0  0  0  0
  5  7  1  0  0  0  0
  5  8  1  0  0  0  0
  8  9  2  0  0  0  0
  8 10  2  0  0  0  0
 11 12  2  0  0  0  0
 11 18  1  0  0  0  0
 12 13  1  0  0  0  0
 12 14  1  0  0  0  0
 14 15  1  0  0  0  0
 14 16  2  0  0  0  0
 16 17  1  0  0  0  0
 18 19  2  0  0  0  0
 18 20  1  0  0  0  0
 20 21  1  0  0  0  0
 20 22  1  0  0  0  0
 22 23  1  0  0  0  0
 22 24  1  0  0  0  0
 22 25  1  0  0  0  0
 25 26  2  0  0  0  0
 25 29  1  0  0  0  0
 26 27  1  0  0  0  0
 27 28  2  0  0  0  0
 27 36  1  0  0  0  0
 28 29  1  0  0  0  0
 28 30  1  0  0  0  0
 30 31  1  0  0  0  0
 30 32  2  0  0  0  0
 32 33  1  0  0  0  0
 32 34  1  0  0  0  0
 34 35  1  0  0  0  0
 34 36  2  0  0  0  0
 36 37  1  0  0  0  0
M  END
>  <IX> 
9359

> <Type> 
L

$$$$
1uze_1
 OpenBabel04212515593D

 25 26  0  0  1  0  0  0  0  0999 V2000
   38.8040   33.6840   41.7050 O   0  0  0  0  0  0  0  0  0  0  0  0
   40.6740   32.5860   42.1270 O   0  0  0  0  0  0  0  0  0  0  0  0
   41.7570   34.8740   43.4350 N   0  0  0  0  0  0  0  0  0  0  0  0
   40.6840   35.0230   42.3630 C   0  0  1  0  0  0  0  0  0  0  0  0
   41.5090   35.5880   41.1790 C   0  0  0  0  0  0  0  0  0  0  0  0
   42.8210   35.7280   41.5570 C   0  0  0  0  0  0  0  0  0  0  0  0
   43.0940   35.3080   42.9330 C   0  0  0  0  0  0  0  0  0  0  0  0
   40.0410   33.6030   42.0400 C   0  0  0  0  0  0  0  0  0  0  0  0
   40.1920   34.0940   44.9270 O   0  0  0  0  0  0  0  0  0  0  0  0
   41.4150   34.3910   44.6760 C   0  0  0  0  0  0  0  0  0  0  0  0
   42.4920   34.1960   45.8130 C   0  0  2  0  0  0  0  0  0  0  0  0
   43.0740   32.7750   45.7120 C   0  0  0  0  0  0  0  0  0  0  0  0
   41.7710   34.4720   47.1180 N   0  0  0  0  0  0  0  0  0  0  0  0
   42.2070   36.6640   47.5300 C   0  0  0  0  0  0  0  0  0  0  0  0
   41.1980   35.5090   47.4850 C   0  0  2  0  0  0  0  0  0  0  0  0
   43.2850   36.5220   48.1860 O   0  0  0  0  0  0  0  0  0  0  0  0
   41.9880   37.6940   46.9090 O   0  0  0  0  0  0  0  0  0  0  0  0
   40.5060   35.7720   48.7790 C   0  0  0  0  0  0  0  0  0  0  0  0
   39.3030   36.6650   49.0290 C   0  0  0  0  0  0  0  0  0  0  0  0
   38.7470   36.7910   50.4110 C   0  0  0  0  0  0  0  0  0  0  0  0
   38.5240   35.6000   51.2570 C   0  0  0  0  0  0  0  0  0  0  0  0
   37.9710   35.7450   52.5950 C   0  0  0  0  0  0  0  0  0  0  0  0
   37.6300   37.0810   53.1110 C   0  0  0  0  0  0  0  0  0  0  0  0
   37.8500   38.2740   52.2740 C   0  0  0  0  0  0  0  0  0  0  0  0
   38.4070   38.1300   50.9260 C   0  0  0  0  0  0  0  0  0  0  0  0
  1  8  2  0  0  0  0
  2  8  2  0  0  0  0
  3  4  1  0  0  0  0
  3  7  1  0  0  0  0
  3 10  1  0  0  0  0
  4  5  1  0  0  0  0
  4  8  1  6  0  0  0
  5  6  1  0  0  0  0
  6  7  1  0  0  0  0
  9 10  2  0  0  0  0
 10 11  1  0  0  0  0
 11 12  1  1  0  0  0
 11 13  1  0  0  0  0
 13 15  1  0  0  0  0
 14 15  1  0  0  0  0
 14 16  2  0  0  0  0
 14 17  2  0  0  0  0
 15 18  1  1  0  0  0
 18 19  1  0  0  0  0
 19 20  1  0  0  0  0
 20 21  1  0  0  0  0
 20 25  2  0  0  0  0
 21 22  2  0  0  0  0
 22 23  1  0  0  0  0
 23 24  2  0  0  0  0
 24 25  1  0  0  0  0
M  END
>  <IX> 
9360

> <Type> 
L

$$$$
1x98_2
 OpenBabel04212515593D

 30 32  0  0  1  0  0  0  0  0999 V2000
   20.9017  -15.6755   15.4882 H   0  0  0  0  0  0  0  0  0  0  0  0
   20.9970  -15.9200   16.5470 C   0  0  0  0  0  0  0  0  0  0  0  0
   21.8630  -16.8930   16.9530 C   0  0  0  0  0  0  0  0  0  0  0  0
   22.5617  -17.3414   16.2461 H   0  0  0  0  0  0  0  0  0  0  0  0
   21.8400  -17.2990   18.2600 C   0  0  0  0  0  0  0  0  0  0  0  0
   22.6420  -18.2630   18.5940 F   0  0  0  0  0  0  0  0  0  0  0  0
   20.2320  -15.2410   17.4990 C   0  0  0  0  0  0  0  0  0  0  0  0
   20.2000  -15.6510   18.8180 C   0  0  0  0  0  0  0  0  0  0  0  0
   21.0250  -16.7220   19.2020 C   0  0  0  0  0  0  0  0  0  0  0  0
   21.0169  -17.0887   20.2278 H   0  0  0  0  0  0  0  0  0  0  0  0
   19.3610  -14.9370   19.8720 C   0  0  2  0  0  0  0  0  0  0  0  0
   20.0710  -14.8110   21.1190 C   0  0  0  0  0  0  0  0  0  0  0  0
   21.1460  -14.2930   21.3390 O   0  0  0  0  0  0  0  0  0  0  0  0
   18.2210  -15.7470   20.2370 N   0  0  0  0  0  0  0  0  0  0  0  0
   17.5900  -16.1718   19.5852 H   0  0  0  0  0  0  0  0  0  0  0  0
   18.1270  -15.8500   21.5620 C   0  0  0  0  0  0  0  0  0  0  0  0
   17.2340  -16.4210   22.1620 O   0  0  0  0  0  0  0  0  0  0  0  0
   19.2820  -15.3000   22.1270 N   0  0  0  0  0  0  0  0  0  0  0  0
   19.4953  -15.2698   23.1023 H   0  0  0  0  0  0  0  0  0  0  0  0
   19.0060  -13.5340   19.3060 C   0  0  0  0  0  0  0  0  0  0  0  0
   18.2273  -13.0743   19.9146 H   0  0  0  0  0  0  0  0  0  0  0  0
   19.8913  -12.8981   19.3076 H   0  0  0  0  0  0  0  0  0  0  0  0
   18.5090  -13.7220   17.8890 C   0  0  2  0  0  0  0  0  0  0  0  0
   17.6792  -14.4297   17.9290 H   0  0  0  0  0  0  0  0  0  0  0  0
   19.5260  -14.1860   17.0030 O   0  0  0  0  0  0  0  0  0  0  0  0
   18.1930  -12.3470   17.3510 C   0  0  0  0  0  0  0  0  0  0  0  0
   17.2840  -11.6920   17.9520 O   0  0  0  0  0  0  0  0  0  0  0  0
   18.8480  -11.8120   16.3340 N   0  0  0  0  0  0  0  0  0  0  0  0
   18.6393  -10.8928   16.0000 H   0  0  0  0  0  0  0  0  0  0  0  0
   19.5684  -12.4176   15.9959 H   0  0  0  0  0  0  0  0  0  0  0  0
  1  2  1  0  0  0  0
  2  3  1  0  0  0  0
  2  7  2  0  0  0  0
  3  4  1  0  0  0  0
  3  5  2  0  0  0  0
  5  6  1  0  0  0  0
  5  9  1  0  0  0  0
  7  8  1  0  0  0  0
  7 25  1  0  0  0  0
  8  9  2  0  0  0  0
  9 10  1  0  0  0  0
 11  8  1  6  0  0  0
 11 12  1  0  0  0  0
 11 14  1  0  0  0  0
 11 20  1  0  0  0  0
 12 13  2  0  0  0  0
 12 18  1  0  0  0  0
 14 15  1  0  0  0  0
 14 16  1  0  0  0  0
 16 17  2  0  0  0  0
 16 18  1  0  0  0  0
 18 19  1  0  0  0  0
 20 21  1  0  0  0  0
 20 22  1  0  0  0  0
 20 23  1  0  0  0  0
 23 24  1  6  0  0  0
 23 25  1  0  0  0  0
 23 26  1  0  0  0  0
 26 27  2  0  0  0  0
 26 28  1  0  0  0  0
 28 29  1  0  0  0  0
 28 30  1  0  0  0  0
M  END
>  <IX> 
9361

> <Type> 
L

$$$$
2agt_2
 OpenBabel04212515593D

 30 32  0  0  1  0  0  0  0  0999 V2000
   14.9982   -8.8110   18.7026 H   0  0  0  0  0  0  0  0  0  0  0  0
   15.3460   -9.2400   17.7640 C   0  0  0  0  0  0  0  0  0  0  0  0
   14.9360  -10.4930   17.3850 C   0  0  0  0  0  0  0  0  0  0  0  0
   14.0990  -11.1740   18.2150 F   0  0  0  0  0  0  0  0  0  0  0  0
   15.3230  -11.0790   16.2290 C   0  0  0  0  0  0  0  0  0  0  0  0
   14.9737  -12.0750   15.9509 H   0  0  0  0  0  0  0  0  0  0  0  0
   16.1990   -8.5290   16.9490 C   0  0  0  0  0  0  0  0  0  0  0  0
   16.6130   -9.0890   15.7600 C   0  0  0  0  0  0  0  0  0  0  0  0
   16.1770  -10.3640   15.4160 C   0  0  0  0  0  0  0  0  0  0  0  0
   16.5175  -10.8098   14.4803 H   0  0  0  0  0  0  0  0  0  0  0  0
   16.6130   -7.0900   17.2880 C   0  0  1  0  0  0  0  0  0  0  0  0
   15.4040   -6.1850   16.9930 C   0  0  0  0  0  0  0  0  0  0  0  0
   14.9520   -5.9750   15.8850 O   0  0  0  0  0  0  0  0  0  0  0  0
   16.7600   -6.8880   18.7200 N   0  0  0  0  0  0  0  0  0  0  0  0
   17.5241   -7.2351   19.2619 H   0  0  0  0  0  0  0  0  0  0  0  0
   15.7350   -6.1760   19.2210 C   0  0  0  0  0  0  0  0  0  0  0  0
   15.5400   -5.9250   20.4080 O   0  0  0  0  0  0  0  0  0  0  0  0
   14.9510   -5.7300   18.1710 N   0  0  0  0  0  0  0  0  0  0  0  0
   14.1475   -5.1439   18.2761 H   0  0  0  0  0  0  0  0  0  0  0  0
   17.8700   -6.6860   16.5260 C   0  0  0  0  0  0  0  0  0  0  0  0
   17.9917   -5.6044   16.5846 H   0  0  0  0  0  0  0  0  0  0  0  0
   18.7341   -7.1738   16.9772 H   0  0  0  0  0  0  0  0  0  0  0  0
   17.7700   -7.0990   15.0640 C   0  0  2  0  0  0  0  0  0  0  0  0
   16.9253   -6.5692   14.6218 H   0  0  0  0  0  0  0  0  0  0  0  0
   17.5050   -8.4820   14.9050 O   0  0  0  0  0  0  0  0  0  0  0  0
   19.0510   -6.7260   14.3580 C   0  0  0  0  0  0  0  0  0  0  0  0
   19.4270   -5.5570   14.3610 O   0  0  0  0  0  0  0  0  0  0  0  0
   19.7020   -7.7680   13.7930 N   0  0  0  0  0  0  0  0  0  0  0  0
   20.5501   -7.5776   13.2986 H   0  0  0  0  0  0  0  0  0  0  0  0
   19.3531   -8.7042   13.8344 H   0  0  0  0  0  0  0  0  0  0  0  0
  1  2  1  0  0  0  0
  2  3  1  0  0  0  0
  2  7  2  0  0  0  0
  3  4  1  0  0  0  0
  3  5  2  0  0  0  0
  5  6  1  0  0  0  0
  5  9  1  0  0  0  0
  7  8  1  0  0  0  0
  8  9  2  0  0  0  0
  8 25  1  0  0  0  0
  9 10  1  0  0  0  0
 11  7  1  6  0  0  0
 11 12  1  0  0  0  0
 11 14  1  0  0  0  0
 11 20  1  0  0  0  0
 12 13  2  0  0  0  0
 12 18  1  0  0  0  0
 14 15  1  0  0  0  0
 14 16  1  0  0  0  0
 16 17  2  0  0  0  0
 16 18  1  0  0  0  0
 18 19  1  0  0  0  0
 20 21  1  0  0  0  0
 20 22  1  0  0  0  0
 20 23  1  0  0  0  0
 23 24  1  6  0  0  0
 23 25  1  0  0  0  0
 23 26  1  0  0  0  0
 26 27  2  0  0  0  0
 26 28  1  0  0  0  0
 28 29  1  0  0  0  0
 28 30  1  0  0  0  0
M  END
>  <IX> 
9362

> <Type> 
L

$$$$
2nvc_2
 OpenBabel04212515593D

 36 38  0  0  0  0  0  0  0  0999 V2000
  -23.5229    6.7026   -8.8483 H   0  0  0  0  0  0  0  0  0  0  0  0
  -23.0640    6.4850   -9.8120 C   0  0  0  0  0  0  0  0  0  0  0  0
  -22.2450    7.4240  -10.4400 C   0  0  0  0  0  0  0  0  0  0  0  0
  -22.0130    8.6650   -9.8230 C   0  0  0  0  0  0  0  0  0  0  0  0
  -22.4774    8.8837   -8.8622 H   0  0  0  0  0  0  0  0  0  0  0  0
  -21.1880    9.6270  -10.4350 C   0  0  0  0  0  0  0  0  0  0  0  0
  -20.9670   10.9440   -9.7370 C   0  0  0  0  0  0  0  0  0  0  0  0
  -20.0750   11.6890  -10.1190 O   0  0  0  0  0  0  0  0  0  0  0  0
  -21.7610   11.2750   -8.7020 O   0  0  0  0  0  0  0  0  0  0  0  0
  -21.4220   12.5860   -8.2360 C   0  0  0  0  0  0  0  0  0  0  0  0
  -20.9827   13.1448   -9.0624 H   0  0  0  0  0  0  0  0  0  0  0  0
  -22.3341   13.0830   -7.9055 H   0  0  0  0  0  0  0  0  0  0  0  0
  -20.4480   12.5730   -7.0990 C   0  0  0  0  0  0  0  0  0  0  0  0
  -19.9650   11.4050   -6.7000 O   0  0  0  0  0  0  0  0  0  0  0  0
  -20.0940   13.6080   -6.5380 O   0  0  0  0  0  0  0  0  0  0  0  0
  -20.6060    9.3230  -11.6720 C   0  0  0  0  0  0  0  0  0  0  0  0
  -20.8470    8.0900  -12.2640 C   0  0  0  0  0  0  0  0  0  0  0  0
  -21.6620    7.1200  -11.6800 C   0  0  0  0  0  0  0  0  0  0  0  0
  -21.8780    5.8960  -12.3170 C   0  0  0  0  0  0  0  0  0  0  0  0
  -21.4189    5.6775  -13.2819 H   0  0  0  0  0  0  0  0  0  0  0  0
  -22.7040    4.9520  -11.6830 C   0  0  0  0  0  0  0  0  0  0  0  0
  -22.8908    3.9859  -12.1554 H   0  0  0  0  0  0  0  0  0  0  0  0
  -23.2870    5.2500  -10.4490 C   0  0  0  0  0  0  0  0  0  0  0  0
  -23.9291    4.5094   -9.9704 H   0  0  0  0  0  0  0  0  0  0  0  0
  -20.0900    8.0640  -13.5750 C   0  0  0  0  0  0  0  0  0  0  0  0
  -20.1370    7.0890  -14.3050 O   0  0  0  0  0  0  0  0  0  0  0  0
  -19.4190    9.2010  -13.7830 N   0  0  0  0  0  0  0  0  0  0  0  0
  -19.5330   10.2780  -12.7060 S   0  0  0  0  0  0  0  0  0  0  0  0
  -20.0860   11.4900  -13.2370 O   0  0  0  0  0  0  0  0  0  0  0  0
  -18.2410   10.3200  -12.0370 O   0  0  0  0  0  0  0  0  0  0  0  0
  -18.9530    9.3510  -15.1540 C   0  0  0  0  0  0  0  0  0  0  0  0
  -19.7192    8.9858  -15.8378 H   0  0  0  0  0  0  0  0  0  0  0  0
  -18.7580   10.4042  -15.3559 H   0  0  0  0  0  0  0  0  0  0  0  0
  -17.6810    8.5580  -15.3570 C   0  0  0  0  0  0  0  0  0  0  0  0
  -17.0350    8.2560  -14.2400 O   0  0  0  0  0  0  0  0  0  0  0  0
  -17.2940    8.2300  -16.4610 O   0  0  0  0  0  0  0  0  0  0  0  0
  1  2  1  0  0  0  0
  2  3  2  0  0  0  0
  2 23  1  0  0  0  0
  3  4  1  0  0  0  0
  3 18  1  0  0  0  0
  4  5  1  0  0  0  0
  4  6  2  0  0  0  0
  6  7  1  0  0  0  0
  6 16  1  0  0  0  0
  7  8  2  0  0  0  0
  7  9  1  0  0  0  0
  9 10  1  0  0  0  0
 10 11  1  0  0  0  0
 10 12  1  0  0  0  0
 10 13  1  0  0  0  0
 13 14  2  0  0  0  0
 13 15  2  0  0  0  0
 16 17  2  0  0  0  0
 16 28  1  0  0  0  0
 17 18  1  0  0  0  0
 17 25  1  0  0  0  0
 18 19  2  0  0  0  0
 19 20  1  0  0  0  0
 19 21  1  0  0  0  0
 21 22  1  0  0  0  0
 21 23  2  0  0  0  0
 23 24  1  0  0  0  0
 25 26  2  0  0  0  0
 25 27  1  0  0  0  0
 27 28  1  0  0  0  0
 27 31  1  0  0  0  0
 28 29  2  0  0  0  0
 28 30  2  0  0  0  0
 31 32  1  0  0  0  0
 31 33  1  0  0  0  0
 31 34  1  0  0  0  0
 34 35  2  0  0  0  0
 34 36  2  0  0  0  0
M  END
>  <IX> 
9363

> <Type> 
L

$$$$
