@<TRIPOS>MOLECULE
1el3_2
    48    49     1
SMALL       
USER_CHARGES
@<TRIPOS>ATOM
    1 H11    22.9155  -17.5611   16.2162 H      1 I84320     0.1500
    2 C1     21.9700  -17.0320   16.3330 C.ar   1 I84320    -0.1500
    3 C2     21.7140  -15.8670   15.5630 C.ar   1 I84320    -0.1440
    4 C11    22.7370  -15.3450   14.5830 C.3    1 I84320     0.1440
    5 H111   22.2679  -15.2026   13.6095 H      1 I84320     0.0000
    6 H112   23.5523  -16.0627   14.4920 H      1 I84320     0.0000
    7 H113   23.1293  -14.3928   14.9400 H      1 I84320     0.0000
    8 C3     20.4690  -15.1690   15.7140 C.ar   1 I84320    -0.1440
    9 C4     19.5060  -15.6700   16.6430 C.ar   1 I84320    -0.1500
   10 H41    18.5535  -15.1540   16.7662 H      1 I84320     0.1500
   11 C5     19.7780  -16.8320   17.4030 C.ar   1 I84320    -0.1500
   12 H51    19.0363  -17.2056   18.1095 H      1 I84320     0.1500
   13 C6     21.0080  -17.5110   17.2470 C.ar   1 I84320    -0.1500
   14 H61    21.2125  -18.4072   17.8329 H      1 I84320     0.1500
   15 C15    20.1400  -13.9010   14.9060 C.3    1 I84320     0.2050
   16 H151   21.0788  -13.4586   14.5728 H      1 I84320     0.0000
   17 H152   19.5493  -14.1958   14.0387 H      1 I84320     0.0000
   18 C16    19.3430  -12.8140   15.6880 C.2    1 I84320     0.5690
   19 O21    19.5270  -12.5820   16.8850 O.2    1 I84320    -0.5700
   20 N19    18.4450  -12.1690   14.8910 N.am   1 I84320    -0.5470
   21 H191   18.2778  -12.5281   13.9712 H      1 I84320     0.3700
   22 C20    17.7570  -11.0480   15.2930 C.ar   1 I84320     0.1170
   23 C22    18.1750   -9.7700   14.8680 C.ar   1 I84320    -0.1500
   24 H221   19.0440   -9.6774   14.2170 H      1 I84320     0.1500
   25 C23    17.4790   -8.6090   15.2750 C.ar   1 I84320    -0.1440
   26 C33    17.9740   -7.2700   14.7890 C.3    1 I84320     0.1440
   27 H331   18.2186   -6.6406   15.6447 H      1 I84320     0.0000
   28 H332   17.1970   -6.7893   14.1947 H      1 I84320     0.0000
   29 H333   18.8642   -7.4123   14.1764 H      1 I84320     0.0000
   30 C24    16.3300   -8.7180   16.1330 C.ar   1 I84320    -0.0090
   31 C25    15.9160  -10.0390   16.5590 C.ar   1 I84320    -0.1440
   32 C26    16.6330  -11.1740   16.1330 C.ar   1 I84320    -0.1500
   33 H261   16.3126  -12.1652   16.4569 H      1 I84320     0.1500
   34 C29    14.7340  -10.2690   17.4510 C.3    1 I84320     0.1440
   35 H291   14.6154  -11.3379   17.6286 H      1 I84320     0.0000
   36 H292   13.8361   -9.8784   16.9722 H      1 I84320     0.0000
   37 H293   14.8908   -9.7580   18.4010 H      1 I84320     0.0000
   38 S37    15.4470   -7.2130   16.6400 S.3    1 I84320     1.4470
   39 O45    14.3650   -7.5250   17.5250 O.2    1 I84320    -0.6500
   40 O46    15.2210   -6.3770   15.4980 O.2    1 I84320    -0.6500
   41 N38    16.5520   -6.3080   17.6050 N.am   1 I84320    -0.9140
   42 H381   17.0023   -5.4852   17.2608 H      1 I84320     0.4200
   43 C39    16.7870   -6.8090   18.9360 C.3    1 I84320     0.2500
   44 H391   16.7079   -7.8961   18.9327 H      1 I84320     0.0000
   45 H392   17.7860   -6.5184   19.2609 H      1 I84320     0.0000
   46 C40    15.7590   -6.2320   19.8910 C.2    1 I84320     0.9060
   47 O43    16.1070   -6.4410   21.1730 O.co2   1 I84320    -0.9000
   48 O44    14.7770   -5.6490   19.5600 O.co2   1 I84320    -0.9000
@<TRIPOS>BOND
    1     1     2 1 
    2     2     3 2 
    3     2    13 1 
    4     3     4 1 
    5     3     8 1 
    6     4     5 1 
    7     4     6 1 
    8     4     7 1 
    9     8     9 2 
   10     8    15 1 
   11     9    10 1 
   12     9    11 1 
   13    11    12 1 
   14    11    13 2 
   15    13    14 1 
   16    15    16 1 
   17    15    17 1 
   18    15    18 1 
   19    18    19 2 
   20    18    20 1 
   21    20    21 1 
   22    20    22 1 
   23    22    23 1 
   24    22    32 2 
   25    23    24 1 
   26    23    25 2 
   27    25    26 1 
   28    25    30 1 
   29    26    27 1 
   30    26    28 1 
   31    26    29 1 
   32    30    31 2 
   33    30    38 1 
   34    31    32 1 
   35    31    34 1 
   36    32    33 1 
   37    34    35 1 
   38    34    36 1 
   39    34    37 1 
   40    38    39 2 
   41    38    40 2 
   42    38    41 1 
   43    41    42 1 
   44    41    43 1 
   45    43    44 1 
   46    43    45 1 
   47    43    46 1 
   48    46    47 2 
   49    46    48 2 
@<TRIPOS>SUBSTRUCTURE
    1   I84320       1
@<TRIPOS>CRYSIN
   49.9300   67.2100   47.6500   90.0000   92.5000   90.0000     4     0

