@<TRIPOS>MOLECULE
2agt_2
    30    32     1
SMALL       
USER_CHARGES
@<TRIPOS>ATOM
    1 H131   14.9982   -8.8110   18.7026 H      1 FID320     0.1500
    2 C13    15.3460   -9.2400   17.7640 C.ar   1 FID320    -0.1500
    3 C14    14.9360  -10.4930   17.3850 C.ar   1 FID320     0.1900
    4 F17    14.0990  -11.1740   18.2150 F      1 FID320    -0.1900
    5 C15    15.3230  -11.0790   16.2290 C.ar   1 FID320    -0.1500
    6 H151   14.9737  -12.0750   15.9509 H      1 FID320     0.1500
    7 C12    16.1990   -8.5290   16.9490 C.ar   1 FID320    -0.1440
    8 C11    16.6130   -9.0890   15.7600 C.ar   1 FID320     0.0830
    9 C16    16.1770  -10.3640   15.4160 C.ar   1 FID320    -0.1500
   10 H161   16.5175  -10.8098   14.4803 H      1 FID320     0.1500
   11 C7I    16.6130   -7.0900   17.2880 C.3    1 FID320     0.5050
   12 C5     15.4040   -6.1850   16.9930 C.2    1 FID320     0.5690
   13 O6I    14.9520   -5.9750   15.8850 O.2    1 FID320    -0.5700
   14 N1I    16.7600   -6.8880   18.7200 N.am   1 FID320    -0.7300
   15 H1I1   17.5241   -7.2351   19.2619 H      1 FID320     0.3700
   16 C2I    15.7350   -6.1760   19.2210 C.2    1 FID320     0.6900
   17 O3I    15.5400   -5.9250   20.4080 O.2    1 FID320    -0.5700
   18 N4     14.9510   -5.7300   18.1710 N.am   1 FID320    -0.4900
   19 H41    14.1475   -5.1439   18.2761 H      1 FID320     0.3700
   20 C8I    17.8700   -6.6860   16.5260 C.3    1 FID320     0.0000
   21 H8I1   17.9917   -5.6044   16.5846 H      1 FID320     0.0000
   22 H8I2   18.7341   -7.1738   16.9772 H      1 FID320     0.0000
   23 C9     17.7700   -7.0990   15.0640 C.3    1 FID320     0.3410
   24 H91    16.9253   -6.5692   14.6218 H      1 FID320     0.0000
   25 O10    17.5050   -8.4820   14.9050 O.3    1 FID320    -0.3630
   26 C19    19.0510   -6.7260   14.3580 C.2    1 FID320     0.5690
   27 O20    19.4270   -5.5570   14.3610 O.2    1 FID320    -0.5700
   28 N21    19.7020   -7.7680   13.7930 N.am   1 FID320    -0.8000
   29 H211   20.5501   -7.5776   13.2986 H      1 FID320     0.3700
   30 H212   19.3531   -8.7042   13.8344 H      1 FID320     0.3700
@<TRIPOS>BOND
    1     1     2 1 
    2     2     3 1 
    3     2     7 2 
    4     3     4 1 
    5     3     5 2 
    6     5     6 1 
    7     5     9 1 
    8     7     8 1 
    9     7    11 1 
   10     8     9 2 
   11     8    25 1 
   12     9    10 1 
   13    11    12 1 
   14    11    14 1 
   15    11    20 1 
   16    12    13 2 
   17    12    18 1 
   18    14    15 1 
   19    14    16 1 
   20    16    17 2 
   21    16    18 1 
   22    18    19 1 
   23    20    21 1 
   24    20    22 1 
   25    20    23 1 
   26    23    24 1 
   27    23    25 1 
   28    23    26 1 
   29    26    27 2 
   30    26    28 1 
   31    28    29 1 
   32    28    30 1 
@<TRIPOS>SUBSTRUCTURE
    1   FID320       1
@<TRIPOS>CRYSIN
   49.1180   66.7240   47.0920   90.0000   92.7900   90.0000     4     0

