@<TRIPOS>MOLECULE
1fgi_l
    37    39     1
SMALL       
USER_CHARGES
@<TRIPOS>ATOM
    1 H41     8.2017    5.6395   19.3487 H      1 SU11001    0.1500
    2 C4      7.4410    4.9330   19.0220 C.ar   1 SU11001   -0.1500
    3 C5      6.8970    5.0140   17.7340 C.ar   1 SU11001   -0.1500
    4 H51     7.2385    5.7939   17.0540 H      1 SU11001    0.1500
    5 C6      5.9110    4.0990   17.3010 C.ar   1 SU11001   -0.1500
    6 H61     5.5084    4.1859   16.2905 H      1 SU11001    0.1500
    7 C7      5.4480    3.1030   18.1220 C.ar   1 SU11001   -0.1500
    8 H71     4.6861    2.3981   17.7838 H      1 SU11001    0.1500
    9 C8      5.9940    3.0250   19.4180 C.ar   1 SU11001    0.1170
   10 C9      6.9850    3.9220   19.8820 C.ar   1 SU11001    0.0280
   11 C3      7.3090    3.5360   21.2270 C.2    1 SU11001   -0.0140
   12 C2      6.5130    2.4730   21.5170 C.2    1 SU11001    0.6160
   13 O2      6.4480    1.8200   22.5560 O.2    1 SU11001   -0.5700
   14 N1      5.7320    2.1500   20.4400 N.am   1 SU11001   -0.5470
   15 H11     5.0746    1.3954   20.4036 H      1 SU11001    0.3700
   16 C10     8.3610    4.1930   22.1030 C.2    1 SU11001   -0.1050
   17 H101    8.7567    5.1401   21.7390 H      1 SU11001    0.1500
   18 C2'     8.9240    3.7030   23.4050 C.ar   1 SU11001   -0.1970
   19 C3'     9.9880    4.2570   24.0490 C.ar   1 SU11001   -0.1810
   20 C12    10.8120    5.4240   23.5350 C.3    1 SU11001    0.1810
   21 H121   10.1417    6.1998   23.1650 H      1 SU11001    0.0000
   22 H122   11.4147    5.8233   24.3507 H      1 SU11001    0.0000
   23 C13    11.7120    4.9870   22.4300 C.3    1 SU11001   -0.1060
   24 H131   12.4457    4.2970   22.8468 H      1 SU11001    0.0000
   25 H132   11.1056    4.4678   21.6878 H      1 SU11001    0.0000
   26 C14    12.4730    6.1130   21.7160 C.2    1 SU11001    0.9060
   27 O3     11.9370    7.2490   21.5710 O.co2   1 SU11001   -0.9000
   28 O4     13.6100    5.8150   21.2600 O.co2   1 SU11001   -0.9000
   29 C4'    10.1990    3.5000   25.1750 C.ar   1 SU11001   -0.1810
   30 C11    11.2890    3.7210   26.2330 C.3    1 SU11001    0.1810
   31 H111   12.2659    3.7394   25.7499 H      1 SU11001    0.0000
   32 H112   11.2588    2.9101   26.9607 H      1 SU11001    0.0000
   33 H113   11.1163    4.6705   26.7397 H      1 SU11001    0.0000
   34 C5'     9.2110    2.5460   25.1870 C.ar   1 SU11001   -0.3020
   35 H5'1    9.0733    1.7948   25.9648 H      1 SU11001    0.1500
   36 N1'     8.4470    2.6740   24.1080 N.pl3   1 SU11001    0.0330
   37 H1'1    7.6596    2.1041   23.8663 H      1 SU11001    0.2700
@<TRIPOS>BOND
    1     1     2 1 
    2     2     3 1 
    3     2    10 2 
    4     3     4 1 
    5     3     5 2 
    6     5     6 1 
    7     5     7 1 
    8     7     8 1 
    9     7     9 2 
   10     9    10 1 
   11     9    14 1 
   12    10    11 1 
   13    11    12 1 
   14    11    16 2 
   15    12    13 2 
   16    12    14 1 
   17    14    15 1 
   18    16    17 1 
   19    16    18 1 
   20    18    19 2 
   21    18    36 1 
   22    19    20 1 
   23    19    29 1 
   24    20    21 1 
   25    20    22 1 
   26    20    23 1 
   27    23    24 1 
   28    23    25 1 
   29    23    26 1 
   30    26    27 2 
   31    26    28 2 
   32    29    30 1 
   33    29    34 2 
   34    30    31 1 
   35    30    32 1 
   36    30    33 1 
   37    34    35 1 
   38    34    36 1 
   39    36    37 1 
@<TRIPOS>SUBSTRUCTURE
    1   SU11001      1
@<TRIPOS>CRYSIN
  208.4900   57.7900   65.5300   90.0000  107.6800   90.0000     5     0

