@<TRIPOS>MOLECULE
1agw_2
    44    47     1
SMALL       
USER_CHARGES
@<TRIPOS>ATOM
    1 H41     7.8449    6.2563   19.1764 H      1 SU21001    0.1500
    2 C4      7.1970    5.4450   18.8500 C.ar   1 SU21001   -0.1500
    3 C5      6.7240    5.4000   17.5470 C.ar   1 SU21001   -0.1500
    4 H51     7.0030    6.1867   16.8465 H      1 SU21001    0.1500
    5 C6      5.8900    4.3560   17.1140 C.ar   1 SU21001   -0.1500
    6 H61     5.5294    4.3535   16.0840 H      1 SU21001    0.1500
    7 C7      5.5170    3.3380   17.9550 C.ar   1 SU21001   -0.1500
    8 H71     4.8770    2.5240   17.6093 H      1 SU21001    0.1500
    9 C8      5.9880    3.3830   19.2720 C.ar   1 SU21001    0.1170
   10 C9      6.8240    4.4240   19.7400 C.ar   1 SU21001    0.0280
   11 C3      7.0950    4.1650   21.1310 C.2    1 SU21001   -0.0140
   12 C2      6.4340    2.9940   21.4270 C.2    1 SU21001    0.6160
   13 O2      6.3730    2.3820   22.4940 O.2    1 SU21001   -0.5700
   14 N1      5.7630    2.5310   20.3220 N.am   1 SU21001   -0.5470
   15 H11     5.1995    1.7039   20.2876 H      1 SU21001    0.3700
   16 C10     7.9420    5.0530   22.0360 C.2    1 SU21001   -0.1780
   17 H101    7.9725    6.1125   21.7849 H      1 SU21001    0.1500
   18 C1'     8.7500    4.6160   23.2540 C.ar   1 SU21001    0.0280
   19 C2'     9.7100    5.4700   23.7810 C.ar   1 SU21001   -0.1500
   20 H2'1    9.8782    6.4405   23.3156 H      1 SU21001    0.1500
   21 C3'    10.4610    5.1000   24.8980 C.ar   1 SU21001   -0.1500
   22 H3'1   11.2101    5.7840   25.2922 H      1 SU21001    0.1500
   23 C4'    10.2640    3.8680   25.5130 C.ar   1 SU21001    0.1000
   24 C5'     9.2980    3.0170   24.9820 C.ar   1 SU21001   -0.1500
   25 H5'1    9.1233    2.0458   25.4464 H      1 SU21001    0.1500
   26 C6'     8.5480    3.3860   23.8630 C.ar   1 SU21001   -0.1500
   27 H6'1    7.7972    2.7012   23.4641 H      1 SU21001    0.1500
   28 N4'    11.0300    3.4890   26.6500 N.pl3   1 SU21001   -0.8380
   29 C3B    10.6690    2.2640   27.4210 C.3    1 SU21001    0.3690
   30 H3B1   10.3889    1.4879   26.7087 H      1 SU21001    0.0000
   31 H3B2    9.8136    2.5033   28.0527 H      1 SU21001    0.0000
   32 C2B    11.7640    1.7130   28.3060 C.3    1 SU21001    0.3000
   33 H2B1   12.4960    1.2230   27.6640 H      1 SU21001    0.0000
   34 H2B2   11.3146    0.9768   28.9724 H      1 SU21001    0.0000
   35 N1'    12.4930    2.7110   29.1520 N.am   1 SU21001   -0.6600
   36 C11    13.2630    2.2770   30.2810 C.2    1 SU21001    0.5700
   37 H111   12.9536    1.3397   30.7452 H      1 SU21001    0.0600
   38 O3     14.2360    2.8450   30.7850 O.2    1 SU21001   -0.5700
   39 C6B    12.8190    3.9910   28.4260 C.3    1 SU21001    0.3000
   40 H6B1   13.0030    4.7599   29.1763 H      1 SU21001    0.0000
   41 H6B2   13.7278    3.8221   27.8484 H      1 SU21001    0.0000
   42 C5B    11.7510    4.5220   27.4680 C.3    1 SU21001    0.3690
   43 H5B1   12.2349    5.2147   26.7795 H      1 SU21001    0.0000
   44 H5B2   11.0083    5.0572   28.0597 H      1 SU21001    0.0000
@<TRIPOS>BOND
    1     1     2 1 
    2     2     3 1 
    3     2    10 2 
    4     3     4 1 
    5     3     5 2 
    6     5     6 1 
    7     5     7 1 
    8     7     8 1 
    9     7     9 2 
   10     9    10 1 
   11     9    14 1 
   12    10    11 1 
   13    11    12 1 
   14    11    16 2 
   15    12    13 2 
   16    12    14 1 
   17    14    15 1 
   18    16    17 1 
   19    16    18 1 
   20    18    19 1 
   21    18    26 2 
   22    19    20 1 
   23    19    21 2 
   24    21    22 1 
   25    21    23 1 
   26    23    24 2 
   27    23    28 1 
   28    24    25 1 
   29    24    26 1 
   30    26    27 1 
   31    28    29 1 
   32    28    42 1 
   33    29    30 1 
   34    29    31 1 
   35    29    32 1 
   36    32    33 1 
   37    32    34 1 
   38    32    35 1 
   39    35    36 1 
   40    35    39 1 
   41    36    37 1 
   42    36    38 2 
   43    39    40 1 
   44    39    41 1 
   45    39    42 1 
   46    42    43 1 
   47    42    44 1 
@<TRIPOS>SUBSTRUCTURE
    1   SU21001      1
@<TRIPOS>CRYSIN
  208.3600   57.0800   65.5300   90.0000  107.5400   90.0000     5     0

