@<TRIPOS>MOLECULE
1agw_2
    44    47     1
SMALL       
USER_CHARGES
@<TRIPOS>ATOM
    1 H41     7.8449    6.2563   19.1764 H      1 SU21001    0.1500
    2 C4      7.1970    5.4450   18.8500 C.ar   1 SU21001   -0.1500
    3 C5      6.7240    5.4000   17.5470 C.ar   1 SU21001   -0.1500
    4 H51     7.0030    6.1867   16.8465 H      1 SU21001    0.1500
    5 C6      5.8900    4.3560   17.1140 C.ar   1 SU21001   -0.1500
    6 H61     5.5294    4.3535   16.0840 H      1 SU21001    0.1500
    7 C7      5.5170    3.3380   17.9550 C.ar   1 SU21001   -0.1500
    8 H71     4.8770    2.5240   17.6093 H      1 SU21001    0.1500
    9 C8      5.9880    3.3830   19.2720 C.ar   1 SU21001    0.1170
   10 C9      6.8240    4.4240   19.7400 C.ar   1 SU21001    0.0280
   11 C3      7.0950    4.1650   21.1310 C.2    1 SU21001   -0.0140
   12 C2      6.4340    2.9940   21.4270 C.2    1 SU21001    0.6160
   13 O2      6.3730    2.3820   22.4940 O.2    1 SU21001   -0.5700
   14 N1      5.7630    2.5310   20.3220 N.am   1 SU21001   -0.5470
   15 H11     5.1995    1.7039   20.2876 H      1 SU21001    0.3700
   16 C10     7.9420    5.0530   22.0360 C.2    1 SU21001   -0.1780
   17 H101    7.9725    6.1125   21.7849 H      1 SU21001    0.1500
   18 C1'     8.7500    4.6160   23.2540 C.ar   1 SU21001    0.0280
   19 C2'     9.7100    5.4700   23.7810 C.ar   1 SU21001   -0.1500
   20 H2'1    9.8782    6.4405   23.3156 H      1 SU21001    0.1500
   21 C3'    10.4610    5.1000   24.8980 C.ar   1 SU21001   -0.1500
   22 H3'1   11.2101    5.7840   25.2922 H      1 SU21001    0.1500
   23 C4'    10.2640    3.8680   25.5130 C.ar   1 SU21001    0.1000
   24 C5'     9.2980    3.0170   24.9820 C.ar   1 SU21001   -0.1500
   25 H5'1    9.1233    2.0458   25.4464 H      1 SU21001    0.1500
   26 C6'     8.5480    3.3860   23.8630 C.ar   1 SU21001   -0.1500
   27 H6'1    7.7972    2.7012   23.4641 H      1 SU21001    0.1500
   28 N4'    11.0300    3.4890   26.6500 N.pl3   1 SU21001   -0.8380
   29 C3B    10.6690    2.2640   27.4210 C.3    1 SU21001    0.3690
   30 H3B1   10.3889    1.4879   26.7087 H      1 SU21001    0.0000
   31 H3B2    9.8136    2.5033   28.0527 H      1 SU21001    0.0000
   32 C2B    11.7640    1.7130   28.3060 C.3    1 SU21001    0.3000
   33 H2B1   12.4960    1.2230   27.6640 H      1 SU21001    0.0000
   34 H2B2   11.3146    0.9768   28.9724 H      1 SU21001    0.0000
   35 N1'    12.4930    2.7110   29.1520 N.am   1 SU21001   -0.6600
   36 C11    13.2630    2.2770   30.2810 C.2    1 SU21001    0.5700
   37 H111   12.9536    1.3397   30.7452 H      1 SU21001    0.0600
   38 O3     14.2360    2.8450   30.7850 O.2    1 SU21001   -0.5700
   39 C6B    12.8190    3.9910   28.4260 C.3    1 SU21001    0.3000
   40 H6B1   13.0030    4.7599   29.1763 H      1 SU21001    0.0000
   41 H6B2   13.7278    3.8221   27.8484 H      1 SU21001    0.0000
   42 C5B    11.7510    4.5220   27.4680 C.3    1 SU21001    0.3690
   43 H5B1   12.2349    5.2147   26.7795 H      1 SU21001    0.0000
   44 H5B2   11.0083    5.0572   28.0597 H      1 SU21001    0.0000
@<TRIPOS>BOND
    1     1     2 1 
    2     2     3 1 
    3     2    10 2 
    4     3     4 1 
    5     3     5 2 
    6     5     6 1 
    7     5     7 1 
    8     7     8 1 
    9     7     9 2 
   10     9    10 1 
   11     9    14 1 
   12    10    11 1 
   13    11    12 1 
   14    11    16 2 
   15    12    13 2 
   16    12    14 1 
   17    14    15 1 
   18    16    17 1 
   19    16    18 1 
   20    18    19 1 
   21    18    26 2 
   22    19    20 1 
   23    19    21 2 
   24    21    22 1 
   25    21    23 1 
   26    23    24 2 
   27    23    28 1 
   28    24    25 1 
   29    24    26 1 
   30    26    27 1 
   31    28    29 1 
   32    28    42 1 
   33    29    30 1 
   34    29    31 1 
   35    29    32 1 
   36    32    33 1 
   37    32    34 1 
   38    32    35 1 
   39    35    36 1 
   40    35    39 1 
   41    36    37 1 
   42    36    38 2 
   43    39    40 1 
   44    39    41 1 
   45    39    42 1 
   46    42    43 1 
   47    42    44 1 
@<TRIPOS>SUBSTRUCTURE
    1   SU21001      1
@<TRIPOS>CRYSIN
  208.3600   57.0800   65.5300   90.0000  107.5400   90.0000     5     0

@<TRIPOS>MOLECULE
1fgi_l
    37    39     1
SMALL       
USER_CHARGES
@<TRIPOS>ATOM
    1 H41     8.2017    5.6395   19.3487 H      1 SU11001    0.1500
    2 C4      7.4410    4.9330   19.0220 C.ar   1 SU11001   -0.1500
    3 C5      6.8970    5.0140   17.7340 C.ar   1 SU11001   -0.1500
    4 H51     7.2385    5.7939   17.0540 H      1 SU11001    0.1500
    5 C6      5.9110    4.0990   17.3010 C.ar   1 SU11001   -0.1500
    6 H61     5.5084    4.1859   16.2905 H      1 SU11001    0.1500
    7 C7      5.4480    3.1030   18.1220 C.ar   1 SU11001   -0.1500
    8 H71     4.6861    2.3981   17.7838 H      1 SU11001    0.1500
    9 C8      5.9940    3.0250   19.4180 C.ar   1 SU11001    0.1170
   10 C9      6.9850    3.9220   19.8820 C.ar   1 SU11001    0.0280
   11 C3      7.3090    3.5360   21.2270 C.2    1 SU11001   -0.0140
   12 C2      6.5130    2.4730   21.5170 C.2    1 SU11001    0.6160
   13 O2      6.4480    1.8200   22.5560 O.2    1 SU11001   -0.5700
   14 N1      5.7320    2.1500   20.4400 N.am   1 SU11001   -0.5470
   15 H11     5.0746    1.3954   20.4036 H      1 SU11001    0.3700
   16 C10     8.3610    4.1930   22.1030 C.2    1 SU11001   -0.1050
   17 H101    8.7567    5.1401   21.7390 H      1 SU11001    0.1500
   18 C2'     8.9240    3.7030   23.4050 C.ar   1 SU11001   -0.1970
   19 C3'     9.9880    4.2570   24.0490 C.ar   1 SU11001   -0.1810
   20 C12    10.8120    5.4240   23.5350 C.3    1 SU11001    0.1810
   21 H121   10.1417    6.1998   23.1650 H      1 SU11001    0.0000
   22 H122   11.4147    5.8233   24.3507 H      1 SU11001    0.0000
   23 C13    11.7120    4.9870   22.4300 C.3    1 SU11001   -0.1060
   24 H131   12.4457    4.2970   22.8468 H      1 SU11001    0.0000
   25 H132   11.1056    4.4678   21.6878 H      1 SU11001    0.0000
   26 C14    12.4730    6.1130   21.7160 C.2    1 SU11001    0.9060
   27 O3     11.9370    7.2490   21.5710 O.co2   1 SU11001   -0.9000
   28 O4     13.6100    5.8150   21.2600 O.co2   1 SU11001   -0.9000
   29 C4'    10.1990    3.5000   25.1750 C.ar   1 SU11001   -0.1810
   30 C11    11.2890    3.7210   26.2330 C.3    1 SU11001    0.1810
   31 H111   12.2659    3.7394   25.7499 H      1 SU11001    0.0000
   32 H112   11.2588    2.9101   26.9607 H      1 SU11001    0.0000
   33 H113   11.1163    4.6705   26.7397 H      1 SU11001    0.0000
   34 C5'     9.2110    2.5460   25.1870 C.ar   1 SU11001   -0.3020
   35 H5'1    9.0733    1.7948   25.9648 H      1 SU11001    0.1500
   36 N1'     8.4470    2.6740   24.1080 N.pl3   1 SU11001    0.0330
   37 H1'1    7.6596    2.1041   23.8663 H      1 SU11001    0.2700
@<TRIPOS>BOND
    1     1     2 1 
    2     2     3 1 
    3     2    10 2 
    4     3     4 1 
    5     3     5 2 
    6     5     6 1 
    7     5     7 1 
    8     7     8 1 
    9     7     9 2 
   10     9    10 1 
   11     9    14 1 
   12    10    11 1 
   13    11    12 1 
   14    11    16 2 
   15    12    13 2 
   16    12    14 1 
   17    14    15 1 
   18    16    17 1 
   19    16    18 1 
   20    18    19 2 
   21    18    36 1 
   22    19    20 1 
   23    19    29 1 
   24    20    21 1 
   25    20    22 1 
   26    20    23 1 
   27    23    24 1 
   28    23    25 1 
   29    23    26 1 
   30    26    27 2 
   31    26    28 2 
   32    29    30 1 
   33    29    34 2 
   34    30    31 1 
   35    30    32 1 
   36    30    33 1 
   37    34    35 1 
   38    34    36 1 
   39    36    37 1 
@<TRIPOS>SUBSTRUCTURE
    1   SU11001      1
@<TRIPOS>CRYSIN
  208.4900   57.7900   65.5300   90.0000  107.6800   90.0000     5     0

@<TRIPOS>MOLECULE
2fgi_l
    79    81     1
SMALL       
USER_CHARGES
@<TRIPOS>ATOM
    1 H11     9.6247    5.8095   30.1930 H      1 PD11001    0.0000
    2 C1      9.7300    6.0540   29.1360 C.3    1 PD11001    0.0000
    3 H12     9.0438    5.4414   28.5513 H      1 PD11001    0.0000
    4 H13     9.4977    7.1077   28.9819 H      1 PD11001    0.0000
    5 C2     11.1620    5.7790   28.6910 C.3    1 PD11001    0.2700
    6 H21    11.2620    6.0101   27.6305 H      1 PD11001    0.0000
    7 H22    11.8457    6.4043   29.2652 H      1 PD11001    0.0000
    8 N1     11.4990    4.3260   28.9210 N.3    1 PD11001   -0.8100
    9 C4     12.8670    4.0160   29.4650 C.3    1 PD11001    0.2700
   10 H41    13.6249    4.3921   28.7778 H      1 PD11001    0.0000
   11 H42    12.9786    2.9372   29.5741 H      1 PD11001    0.0000
   12 C3     13.0390    4.6910   30.8380 C.3    1 PD11001    0.0000
   13 H31    13.8045    4.1648   31.4082 H      1 PD11001    0.0000
   14 H32    12.0942    4.6570   31.3805 H      1 PD11001    0.0000
   15 H33    13.3401    5.7291   30.6973 H      1 PD11001    0.0000
   16 C5     10.8880    3.3130   27.9900 C.3    1 PD11001    0.2700
   17 H51    10.0147    2.8809   28.4786 H      1 PD11001    0.0000
   18 H52    11.6240    2.5310   27.8033 H      1 PD11001    0.0000
   19 C6     10.4530    3.8870   26.6560 C.3    1 PD11001    0.0000
   20 H61     9.9986    4.8639   26.8213 H      1 PD11001    0.0000
   21 H62    11.3276    3.9969   26.0148 H      1 PD11001    0.0000
   22 C7      9.4540    2.9910   25.9730 C.3    1 PD11001    0.0000
   23 H71     9.9294    2.0384   25.7394 H      1 PD11001    0.0000
   24 H72     8.6101    2.8216   26.6417 H      1 PD11001    0.0000
   25 C8      8.9500    3.6270   24.6840 C.3    1 PD11001    0.3690
   26 H81     8.7165    4.6744   24.8752 H      1 PD11001    0.0000
   27 H82     9.7330    3.5613   23.9285 H      1 PD11001    0.0000
   28 N2      7.7510    2.9590   24.1820 N.pl3   1 PD11001   -0.8690
   29 H01     7.3030    2.3353   24.8232 H      1 PD11001    0.4000
   30 C9      7.1310    3.0720   22.9050 C.ar   1 PD11001    0.7200
   31 N3      6.3230    2.0940   22.5420 N.ar   1 PD11001   -0.6200
   32 C10     5.7400    2.2150   21.2950 C.ar   1 PD11001    0.1600
   33 H101    5.0535    1.4443   20.9395 H      1 PD11001    0.1500
   34 C11     6.0240    3.3180   20.4860 C.ar   1 PD11001    0.0000
   35 C12     6.9000    4.3240   20.9760 C.ar   1 PD11001    0.6200
   36 N4      7.4290    4.1450   22.1800 N.ar   1 PD11001   -0.6200
   37 N5      7.1900    5.3550   20.2030 N.ar   1 PD11001   -0.6200
   38 C15     6.6830    5.4990   18.9790 C.ar   1 PD11001    0.4270
   39 N6      7.0700    6.6520   18.2320 N.am   1 PD11001   -0.5470
   40 H02     6.6217    6.7264   17.3398 H      1 PD11001    0.3700
   41 C24     7.9120    7.6430   18.4980 C.2    1 PD11001    0.6900
   42 O3      8.2250    8.4490   17.6210 O.2    1 PD11001   -0.5700
   43 N7      8.3600    7.7640   19.7500 N.am   1 PD11001   -0.7300
   44 H03     8.0683    7.0718   20.4106 H      1 PD11001    0.3700
   45 C25     9.2370    8.8210   20.2280 C.3    1 PD11001    0.3000
   46 C26    10.5680    8.7190   19.5510 C.3    1 PD11001    0.0000
   47 H261   10.4446    8.8825   18.4804 H      1 PD11001    0.0000
   48 H262   10.9871    7.7273   19.7211 H      1 PD11001    0.0000
   49 H263   11.2416    9.4729   19.9584 H      1 PD11001    0.0000
   50 C27     8.6280   10.1930   19.9490 C.3    1 PD11001    0.0000
   51 H271    9.2082   10.9594   20.4630 H      1 PD11001    0.0000
   52 H272    7.5993   10.2138   20.3087 H      1 PD11001    0.0000
   53 H273    8.6418   10.3853   18.8762 H      1 PD11001    0.0000
   54 C28     9.4340    8.6440   21.7060 C.3    1 PD11001    0.0000
   55 H281    9.7582    7.6235   21.9097 H      1 PD11001    0.0000
   56 H282    8.4943    8.8368   22.2235 H      1 PD11001    0.0000
   57 H283   10.1926    9.3432   22.0577 H      1 PD11001    0.0000
   58 C14     5.8210    4.5680   18.4330 C.ar   1 PD11001    0.0000
   59 C13     5.4770    3.4670   19.1980 C.ar   1 PD11001   -0.1500
   60 H131    4.7859    2.7192   18.8044 H      1 PD11001    0.1500
   61 C16     5.2980    4.6730   17.1530 C.ar   1 PD11001    0.0000
   62 C17     5.8270    3.8790   16.1330 C.ar   1 PD11001   -0.1500
   63 H171    6.6417    3.1881   16.3483 H      1 PD11001    0.1500
   64 C18     5.3200    3.9650   14.8510 C.ar   1 PD11001    0.0830
   65 O1      5.8570    3.1510   13.8580 O.3    1 PD11001   -0.3630
   66 C22     5.0810    2.5360   12.8020 C.3    1 PD11001    0.2800
   67 H221    4.5230    3.3042   12.2666 H      1 PD11001    0.0000
   68 H222    4.3855    1.8164   13.2340 H      1 PD11001    0.0000
   69 H223    5.7501    2.0243   12.1102 H      1 PD11001    0.0000
   70 C19     4.2880    4.8070   14.5410 C.ar   1 PD11001   -0.1500
   71 H191    3.8910    4.8588   13.5258 H      1 PD11001    0.1500
   72 C20     3.7620    5.5890   15.5520 C.ar   1 PD11001    0.0830
   73 C21     4.2470    5.5340   16.8560 C.ar   1 PD11001   -0.1500
   74 H211    3.8073    6.1571   17.6335 H      1 PD11001    0.1500
   75 O2      2.6890    6.4300   15.2610 O.3    1 PD11001   -0.3630
   76 C23     1.7620    6.2110   14.1600 C.3    1 PD11001    0.2800
   77 H231    0.9701    6.9590   14.1975 H      1 PD11001    0.0000
   78 H232    1.3259    5.2157   14.2447 H      1 PD11001    0.0000
   79 H233    2.2960    6.2943   13.2134 H      1 PD11001    0.0000
@<TRIPOS>BOND
    1     1     2 1 
    2     2     3 1 
    3     2     4 1 
    4     2     5 1 
    5     5     6 1 
    6     5     7 1 
    7     5     8 1 
    8     8     9 1 
    9     8    16 1 
   10     9    10 1 
   11     9    11 1 
   12     9    12 1 
   13    12    13 1 
   14    12    14 1 
   15    12    15 1 
   16    16    17 1 
   17    16    18 1 
   18    16    19 1 
   19    19    20 1 
   20    19    21 1 
   21    19    22 1 
   22    22    23 1 
   23    22    24 1 
   24    22    25 1 
   25    25    26 1 
   26    25    27 1 
   27    25    28 1 
   28    28    29 1 
   29    28    30 1 
   30    30    31 1 
   31    30    36 2 
   32    31    32 2 
   33    32    33 1 
   34    32    34 1 
   35    34    35 2 
   36    34    59 1 
   37    35    36 1 
   38    35    37 1 
   39    37    38 2 
   40    38    39 1 
   41    38    58 1 
   42    39    40 1 
   43    39    41 1 
   44    41    42 2 
   45    41    43 1 
   46    43    44 1 
   47    43    45 1 
   48    45    46 1 
   49    45    50 1 
   50    45    54 1 
   51    46    47 1 
   52    46    48 1 
   53    46    49 1 
   54    50    51 1 
   55    50    52 1 
   56    50    53 1 
   57    54    55 1 
   58    54    56 1 
   59    54    57 1 
   60    58    59 2 
   61    58    61 1 
   62    59    60 1 
   63    61    62 1 
   64    61    73 2 
   65    62    63 1 
   66    62    64 2 
   67    64    65 1 
   68    64    70 1 
   69    65    66 1 
   70    66    67 1 
   71    66    68 1 
   72    66    69 1 
   73    70    71 1 
   74    70    72 2 
   75    72    73 1 
   76    72    75 1 
   77    73    74 1 
   78    75    76 1 
   79    76    77 1 
   80    76    78 1 
   81    76    79 1 
@<TRIPOS>SUBSTRUCTURE
    1   PD11001      1
@<TRIPOS>CRYSIN
  208.7900   57.3800   66.1800   90.0000  107.5500   90.0000     5     0

@<TRIPOS>MOLECULE
3c4f_l
    32    34     1
SMALL       
USER_CHARGES
@<TRIPOS>ATOM
    1 H151    4.4408    2.5334   12.9544 H      1 C4F1       0.0000
    2 C15     5.4000    2.0210   12.8800 C.3    1 C4F1       0.2800
    3 H152    5.2512    0.9497   13.0154 H      1 C4F1       0.0000
    4 H153    5.8355    2.2060   11.8981 H      1 C4F1       0.0000
    5 O14     6.2850    2.5130   13.8960 O.3    1 C4F1      -0.3630
    6 C13     5.8310    3.4370   14.8170 C.ar   1 C4F1       0.0830
    7 C12     6.5540    3.6050   15.9860 C.ar   1 C4F1      -0.1500
    8 H121    7.4658    3.0301   16.1448 H      1 C4F1       0.1500
    9 C11     6.1250    4.4960   16.9510 C.ar   1 C4F1      -0.1440
   10 C18     4.9500    5.2000   16.7580 C.ar   1 C4F1      -0.1500
   11 H181    4.6050    5.8983   17.5190 H      1 C4F1       0.1500
   12 C17     4.2060    5.0210   15.5990 C.ar   1 C4F1      -0.1500
   13 H171    3.2752    5.5703   15.4538 H      1 C4F1       0.1500
   14 C16     4.6520    4.1380   14.6250 C.ar   1 C4F1      -0.1500
   15 H161    4.0744    3.9957   13.7099 H      1 C4F1       0.1500
   16 C10     6.9400    4.6490   18.2150 C.3    1 C4F1       0.3240
   17 H101    8.0029    4.5834   17.9826 H      1 C4F1       0.0000
   18 H102    6.7285    5.6119   18.6799 H      1 C4F1       0.0000
   19 C9      6.5410    3.5140   19.1600 C.ar   1 C4F1      -0.1810
   20 C1      7.0870    3.2210   20.5030 C.ar   1 C4F1       0.0000
   21 C2      8.0430    3.8480   21.2630 C.ar   1 C4F1      -0.1500
   22 H21     8.5627    4.7422   20.9220 H      1 C4F1       0.1500
   23 C3      8.3000    3.2620   22.4950 C.ar   1 C4F1      -0.1500
   24 H31     9.0696    3.6792   23.1416 H      1 C4F1       0.1500
   25 C4      7.5770    2.1380   22.9120 C.ar   1 C4F1       0.1600
   26 H41     7.7936    1.6930   23.8824 H      1 C4F1       0.1500
   27 N5      6.6240    1.5970   22.1430 N.ar   1 C4F1      -0.5670
   28 C6      6.4020    2.1390   20.9460 C.ar   1 C4F1       0.1050
   29 N7      5.5370    1.7580   19.9970 N.pl3   1 C4F1       0.0330
   30 H71     4.9221    0.9700   20.0570 H      1 C4F1       0.2700
   31 C8      5.6180    2.5630   18.9920 C.ar   1 C4F1      -0.3020
   32 H81     4.9973    2.4752   18.0985 H      1 C4F1       0.1500
@<TRIPOS>BOND
    1     1     2 1 
    2     2     3 1 
    3     2     4 1 
    4     2     5 1 
    5     5     6 1 
    6     6     7 1 
    7     6    14 2 
    8     7     8 1 
    9     7     9 2 
   10     9    10 1 
   11     9    16 1 
   12    10    11 1 
   13    10    12 2 
   14    12    13 1 
   15    12    14 1 
   16    14    15 1 
   17    16    17 1 
   18    16    18 1 
   19    16    19 1 
   20    19    20 1 
   21    19    31 2 
   22    20    21 1 
   23    20    28 2 
   24    21    22 1 
   25    21    23 2 
   26    23    24 1 
   27    23    25 1 
   28    25    26 1 
   29    25    27 2 
   30    27    28 1 
   31    28    29 1 
   32    29    30 1 
   33    29    31 1 
   34    31    32 1 
@<TRIPOS>SUBSTRUCTURE
    1   C4F1         1
@<TRIPOS>CRYSIN
  208.1900   57.6230   65.3680   90.0000  107.6200   90.0000     5     0

@<TRIPOS>MOLECULE
4uwc_l
    41    43     1
SMALL       
USER_CHARGES
@<TRIPOS>ATOM
    1 H2     86.3820    2.0480   10.2360 H      1 4Y01773    0.1500
    2 C2     86.9120    1.0980   10.1900 C.ar   1 4Y01773   -0.1500
    3 C3     86.8720    0.1350    9.1820 C.ar   1 4Y01773    0.3520
    4 N6     86.1360    0.1240    7.9900 N.am   1 4Y01773   -0.4930
    5 H6     86.2930   -0.7000    7.4200 H      1 4Y01773    0.3700
    6 C7     85.3150    1.1380    7.5270 C.2    1 4Y01773    0.5440
    7 O2     85.2570    2.2290    8.0870 O.2    1 4Y01773   -0.5700
    8 C9     84.4940    0.8570    6.3000 C.ar   1 4Y01773    0.0860
    9 C10    83.3530    1.6330    6.0860 C.ar   1 4Y01773   -0.1500
   10 H10    83.0990    2.3830    6.8320 H      1 4Y01773    0.1500
   11 C11    82.5640    1.4300    4.9560 C.ar   1 4Y01773    0.0830
   12 O17    81.4300    2.1350    4.6480 O.3    1 4Y01773   -0.3630
   13 C21    81.1530    3.3260    5.3890 C.3    1 4Y01773    0.2800
   14 H211   80.2515    3.6852    4.8938 H      1 4Y01773    0.0000
   15 H212   81.9367    4.0790    5.3150 H      1 4Y01773    0.0000
   16 H213   80.9271    3.1380    6.4371 H      1 4Y01773    0.0000
   17 C12    82.9180    0.4330    4.0270 C.ar   1 4Y01773    0.0830
   18 C16    84.0630   -0.3230    4.2370 C.ar   1 4Y01773   -0.1500
   19 H16    84.4050   -1.0570    3.5110 H      1 4Y01773    0.1500
   20 C15    84.8400   -0.1100    5.3600 C.ar   1 4Y01773   -0.1500
   21 H15    85.7550   -0.6880    5.4660 H      1 4Y01773    0.1500
   22 O18    82.0720    0.3060    2.9560 O.3    1 4Y01773   -0.3630
   23 C      82.4160   -0.6230    1.9260 C.3    1 4Y01773    0.2800
   24 HC1    82.3621   -1.6087    2.3844 H      1 4Y01773    0.0000
   25 HC2    81.6615   -0.5508    1.1433 H      1 4Y01773    0.0000
   26 HC3    83.3899   -0.5067    1.4525 H      1 4Y01773    0.0000
   27 N5     87.6460   -0.9120    9.4550 N.ar   1 4Y01773   -0.7070
   28 N1     88.1900   -0.5950   10.6750 N.pl3   1 4Y01773    0.3000
   29 H1     88.8270   -1.2600   11.1010 H      1 4Y01773    0.2700
   30 C4     87.7880    0.6080   11.1310 C.ar   1 4Y01773   -0.2050
   31 C13    88.1900    1.1590   12.4380 C.ar   1 4Y01773    0.0530
   32 C19    88.1720    0.3520   13.5730 C.ar   1 4Y01773   -0.1500
   33 H19    88.0060   -0.7220   13.5130 H      1 4Y01773    0.1500
   34 C23    88.3910    0.8980   14.8270 C.ar   1 4Y01773   -0.1500
   35 H23    88.4660    0.2370   15.6880 H      1 4Y01773    0.1500
   36 C24    88.6360    2.2460   14.9670 C.ar   1 4Y01773   -0.1500
   37 H24    88.8700    2.6550   15.9480 H      1 4Y01773    0.1500
   38 C22    88.6230    3.0620   13.8530 C.ar   1 4Y01773   -0.1500
   39 H22    88.7810    4.1320   13.9750 H      1 4Y01773    0.1500
   40 C20    88.3440    2.5320   12.6020 C.ar   1 4Y01773   -0.1500
   41 H20    88.2970    3.1950   11.7410 H      1 4Y01773    0.1500
@<TRIPOS>BOND
    1     1     2 1 
    2     2     3 1 
    3     2    30 2 
    4     3     4 1 
    5     3    27 2 
    6     4     5 1 
    7     4     6 1 
    8     6     7 2 
    9     6     8 1 
   10     8     9 2 
   11     8    20 1 
   12     9    10 1 
   13     9    11 1 
   14    11    12 1 
   15    11    17 2 
   16    12    13 1 
   17    13    14 1 
   18    13    15 1 
   19    13    16 1 
   20    17    18 1 
   21    17    22 1 
   22    18    19 1 
   23    18    20 2 
   24    20    21 1 
   25    22    23 1 
   26    23    24 1 
   27    23    25 1 
   28    23    26 1 
   29    27    28 1 
   30    28    29 1 
   31    28    30 1 
   32    30    31 1 
   33    31    32 2 
   34    31    40 1 
   35    32    33 1 
   36    32    34 1 
   37    34    35 1 
   38    34    36 2 
   39    36    37 1 
   40    36    38 1 
   41    38    39 1 
   42    38    40 2 
   43    40    41 1 
@<TRIPOS>SUBSTRUCTURE
    1   4Y01773      1
@<TRIPOS>CRYSIN
  207.4640   58.4220   65.9460   90.0000  107.3800   90.0000     5     0

