@<TRIPOS>MOLECULE
2fgi_l
    79    81     1
SMALL       
USER_CHARGES
@<TRIPOS>ATOM
    1 H11     9.6247    5.8095   30.1930 H      1 PD11001    0.0000
    2 C1      9.7300    6.0540   29.1360 C.3    1 PD11001    0.0000
    3 H12     9.0438    5.4414   28.5513 H      1 PD11001    0.0000
    4 H13     9.4977    7.1077   28.9819 H      1 PD11001    0.0000
    5 C2     11.1620    5.7790   28.6910 C.3    1 PD11001    0.2700
    6 H21    11.2620    6.0101   27.6305 H      1 PD11001    0.0000
    7 H22    11.8457    6.4043   29.2652 H      1 PD11001    0.0000
    8 N1     11.4990    4.3260   28.9210 N.3    1 PD11001   -0.8100
    9 C4     12.8670    4.0160   29.4650 C.3    1 PD11001    0.2700
   10 H41    13.6249    4.3921   28.7778 H      1 PD11001    0.0000
   11 H42    12.9786    2.9372   29.5741 H      1 PD11001    0.0000
   12 C3     13.0390    4.6910   30.8380 C.3    1 PD11001    0.0000
   13 H31    13.8045    4.1648   31.4082 H      1 PD11001    0.0000
   14 H32    12.0942    4.6570   31.3805 H      1 PD11001    0.0000
   15 H33    13.3401    5.7291   30.6973 H      1 PD11001    0.0000
   16 C5     10.8880    3.3130   27.9900 C.3    1 PD11001    0.2700
   17 H51    10.0147    2.8809   28.4786 H      1 PD11001    0.0000
   18 H52    11.6240    2.5310   27.8033 H      1 PD11001    0.0000
   19 C6     10.4530    3.8870   26.6560 C.3    1 PD11001    0.0000
   20 H61     9.9986    4.8639   26.8213 H      1 PD11001    0.0000
   21 H62    11.3276    3.9969   26.0148 H      1 PD11001    0.0000
   22 C7      9.4540    2.9910   25.9730 C.3    1 PD11001    0.0000
   23 H71     9.9294    2.0384   25.7394 H      1 PD11001    0.0000
   24 H72     8.6101    2.8216   26.6417 H      1 PD11001    0.0000
   25 C8      8.9500    3.6270   24.6840 C.3    1 PD11001    0.3690
   26 H81     8.7165    4.6744   24.8752 H      1 PD11001    0.0000
   27 H82     9.7330    3.5613   23.9285 H      1 PD11001    0.0000
   28 N2      7.7510    2.9590   24.1820 N.pl3   1 PD11001   -0.8690
   29 H01     7.3030    2.3353   24.8232 H      1 PD11001    0.4000
   30 C9      7.1310    3.0720   22.9050 C.ar   1 PD11001    0.7200
   31 N3      6.3230    2.0940   22.5420 N.ar   1 PD11001   -0.6200
   32 C10     5.7400    2.2150   21.2950 C.ar   1 PD11001    0.1600
   33 H101    5.0535    1.4443   20.9395 H      1 PD11001    0.1500
   34 C11     6.0240    3.3180   20.4860 C.ar   1 PD11001    0.0000
   35 C12     6.9000    4.3240   20.9760 C.ar   1 PD11001    0.6200
   36 N4      7.4290    4.1450   22.1800 N.ar   1 PD11001   -0.6200
   37 N5      7.1900    5.3550   20.2030 N.ar   1 PD11001   -0.6200
   38 C15     6.6830    5.4990   18.9790 C.ar   1 PD11001    0.4270
   39 N6      7.0700    6.6520   18.2320 N.am   1 PD11001   -0.5470
   40 H02     6.6217    6.7264   17.3398 H      1 PD11001    0.3700
   41 C24     7.9120    7.6430   18.4980 C.2    1 PD11001    0.6900
   42 O3      8.2250    8.4490   17.6210 O.2    1 PD11001   -0.5700
   43 N7      8.3600    7.7640   19.7500 N.am   1 PD11001   -0.7300
   44 H03     8.0683    7.0718   20.4106 H      1 PD11001    0.3700
   45 C25     9.2370    8.8210   20.2280 C.3    1 PD11001    0.3000
   46 C26    10.5680    8.7190   19.5510 C.3    1 PD11001    0.0000
   47 H261   10.4446    8.8825   18.4804 H      1 PD11001    0.0000
   48 H262   10.9871    7.7273   19.7211 H      1 PD11001    0.0000
   49 H263   11.2416    9.4729   19.9584 H      1 PD11001    0.0000
   50 C27     8.6280   10.1930   19.9490 C.3    1 PD11001    0.0000
   51 H271    9.2082   10.9594   20.4630 H      1 PD11001    0.0000
   52 H272    7.5993   10.2138   20.3087 H      1 PD11001    0.0000
   53 H273    8.6418   10.3853   18.8762 H      1 PD11001    0.0000
   54 C28     9.4340    8.6440   21.7060 C.3    1 PD11001    0.0000
   55 H281    9.7582    7.6235   21.9097 H      1 PD11001    0.0000
   56 H282    8.4943    8.8368   22.2235 H      1 PD11001    0.0000
   57 H283   10.1926    9.3432   22.0577 H      1 PD11001    0.0000
   58 C14     5.8210    4.5680   18.4330 C.ar   1 PD11001    0.0000
   59 C13     5.4770    3.4670   19.1980 C.ar   1 PD11001   -0.1500
   60 H131    4.7859    2.7192   18.8044 H      1 PD11001    0.1500
   61 C16     5.2980    4.6730   17.1530 C.ar   1 PD11001    0.0000
   62 C17     5.8270    3.8790   16.1330 C.ar   1 PD11001   -0.1500
   63 H171    6.6417    3.1881   16.3483 H      1 PD11001    0.1500
   64 C18     5.3200    3.9650   14.8510 C.ar   1 PD11001    0.0830
   65 O1      5.8570    3.1510   13.8580 O.3    1 PD11001   -0.3630
   66 C22     5.0810    2.5360   12.8020 C.3    1 PD11001    0.2800
   67 H221    4.5230    3.3042   12.2666 H      1 PD11001    0.0000
   68 H222    4.3855    1.8164   13.2340 H      1 PD11001    0.0000
   69 H223    5.7501    2.0243   12.1102 H      1 PD11001    0.0000
   70 C19     4.2880    4.8070   14.5410 C.ar   1 PD11001   -0.1500
   71 H191    3.8910    4.8588   13.5258 H      1 PD11001    0.1500
   72 C20     3.7620    5.5890   15.5520 C.ar   1 PD11001    0.0830
   73 C21     4.2470    5.5340   16.8560 C.ar   1 PD11001   -0.1500
   74 H211    3.8073    6.1571   17.6335 H      1 PD11001    0.1500
   75 O2      2.6890    6.4300   15.2610 O.3    1 PD11001   -0.3630
   76 C23     1.7620    6.2110   14.1600 C.3    1 PD11001    0.2800
   77 H231    0.9701    6.9590   14.1975 H      1 PD11001    0.0000
   78 H232    1.3259    5.2157   14.2447 H      1 PD11001    0.0000
   79 H233    2.2960    6.2943   13.2134 H      1 PD11001    0.0000
@<TRIPOS>BOND
    1     1     2 1 
    2     2     3 1 
    3     2     4 1 
    4     2     5 1 
    5     5     6 1 
    6     5     7 1 
    7     5     8 1 
    8     8     9 1 
    9     8    16 1 
   10     9    10 1 
   11     9    11 1 
   12     9    12 1 
   13    12    13 1 
   14    12    14 1 
   15    12    15 1 
   16    16    17 1 
   17    16    18 1 
   18    16    19 1 
   19    19    20 1 
   20    19    21 1 
   21    19    22 1 
   22    22    23 1 
   23    22    24 1 
   24    22    25 1 
   25    25    26 1 
   26    25    27 1 
   27    25    28 1 
   28    28    29 1 
   29    28    30 1 
   30    30    31 1 
   31    30    36 2 
   32    31    32 2 
   33    32    33 1 
   34    32    34 1 
   35    34    35 2 
   36    34    59 1 
   37    35    36 1 
   38    35    37 1 
   39    37    38 2 
   40    38    39 1 
   41    38    58 1 
   42    39    40 1 
   43    39    41 1 
   44    41    42 2 
   45    41    43 1 
   46    43    44 1 
   47    43    45 1 
   48    45    46 1 
   49    45    50 1 
   50    45    54 1 
   51    46    47 1 
   52    46    48 1 
   53    46    49 1 
   54    50    51 1 
   55    50    52 1 
   56    50    53 1 
   57    54    55 1 
   58    54    56 1 
   59    54    57 1 
   60    58    59 2 
   61    58    61 1 
   62    59    60 1 
   63    61    62 1 
   64    61    73 2 
   65    62    63 1 
   66    62    64 2 
   67    64    65 1 
   68    64    70 1 
   69    65    66 1 
   70    66    67 1 
   71    66    68 1 
   72    66    69 1 
   73    70    71 1 
   74    70    72 2 
   75    72    73 1 
   76    72    75 1 
   77    73    74 1 
   78    75    76 1 
   79    76    77 1 
   80    76    78 1 
   81    76    79 1 
@<TRIPOS>SUBSTRUCTURE
    1   PD11001      1
@<TRIPOS>CRYSIN
  208.7900   57.3800   66.1800   90.0000  107.5500   90.0000     5     0

