@<TRIPOS>MOLECULE
3c4f_l
    32    34     1
SMALL       
USER_CHARGES
@<TRIPOS>ATOM
    1 H151    4.4408    2.5334   12.9544 H      1 C4F1       0.0000
    2 C15     5.4000    2.0210   12.8800 C.3    1 C4F1       0.2800
    3 H152    5.2512    0.9497   13.0154 H      1 C4F1       0.0000
    4 H153    5.8355    2.2060   11.8981 H      1 C4F1       0.0000
    5 O14     6.2850    2.5130   13.8960 O.3    1 C4F1      -0.3630
    6 C13     5.8310    3.4370   14.8170 C.ar   1 C4F1       0.0830
    7 C12     6.5540    3.6050   15.9860 C.ar   1 C4F1      -0.1500
    8 H121    7.4658    3.0301   16.1448 H      1 C4F1       0.1500
    9 C11     6.1250    4.4960   16.9510 C.ar   1 C4F1      -0.1440
   10 C18     4.9500    5.2000   16.7580 C.ar   1 C4F1      -0.1500
   11 H181    4.6050    5.8983   17.5190 H      1 C4F1       0.1500
   12 C17     4.2060    5.0210   15.5990 C.ar   1 C4F1      -0.1500
   13 H171    3.2752    5.5703   15.4538 H      1 C4F1       0.1500
   14 C16     4.6520    4.1380   14.6250 C.ar   1 C4F1      -0.1500
   15 H161    4.0744    3.9957   13.7099 H      1 C4F1       0.1500
   16 C10     6.9400    4.6490   18.2150 C.3    1 C4F1       0.3240
   17 H101    8.0029    4.5834   17.9826 H      1 C4F1       0.0000
   18 H102    6.7285    5.6119   18.6799 H      1 C4F1       0.0000
   19 C9      6.5410    3.5140   19.1600 C.ar   1 C4F1      -0.1810
   20 C1      7.0870    3.2210   20.5030 C.ar   1 C4F1       0.0000
   21 C2      8.0430    3.8480   21.2630 C.ar   1 C4F1      -0.1500
   22 H21     8.5627    4.7422   20.9220 H      1 C4F1       0.1500
   23 C3      8.3000    3.2620   22.4950 C.ar   1 C4F1      -0.1500
   24 H31     9.0696    3.6792   23.1416 H      1 C4F1       0.1500
   25 C4      7.5770    2.1380   22.9120 C.ar   1 C4F1       0.1600
   26 H41     7.7936    1.6930   23.8824 H      1 C4F1       0.1500
   27 N5      6.6240    1.5970   22.1430 N.ar   1 C4F1      -0.5670
   28 C6      6.4020    2.1390   20.9460 C.ar   1 C4F1       0.1050
   29 N7      5.5370    1.7580   19.9970 N.pl3   1 C4F1       0.0330
   30 H71     4.9221    0.9700   20.0570 H      1 C4F1       0.2700
   31 C8      5.6180    2.5630   18.9920 C.ar   1 C4F1      -0.3020
   32 H81     4.9973    2.4752   18.0985 H      1 C4F1       0.1500
@<TRIPOS>BOND
    1     1     2 1 
    2     2     3 1 
    3     2     4 1 
    4     2     5 1 
    5     5     6 1 
    6     6     7 1 
    7     6    14 2 
    8     7     8 1 
    9     7     9 2 
   10     9    10 1 
   11     9    16 1 
   12    10    11 1 
   13    10    12 2 
   14    12    13 1 
   15    12    14 1 
   16    14    15 1 
   17    16    17 1 
   18    16    18 1 
   19    16    19 1 
   20    19    20 1 
   21    19    31 2 
   22    20    21 1 
   23    20    28 2 
   24    21    22 1 
   25    21    23 2 
   26    23    24 1 
   27    23    25 1 
   28    25    26 1 
   29    25    27 2 
   30    27    28 1 
   31    28    29 1 
   32    29    30 1 
   33    29    31 1 
   34    31    32 1 
@<TRIPOS>SUBSTRUCTURE
    1   C4F1         1
@<TRIPOS>CRYSIN
  208.1900   57.6230   65.3680   90.0000  107.6200   90.0000     5     0

