1agw_2
 OpenBabel04212516193D

 44 47  0  0  0  0  0  0  0  0999 V2000
    7.8449    6.2563   19.1764 H   0  0  0  0  0  0  0  0  0  0  0  0
    7.1970    5.4450   18.8500 C   0  0  0  0  0  0  0  0  0  0  0  0
    6.7240    5.4000   17.5470 C   0  0  0  0  0  0  0  0  0  0  0  0
    7.0030    6.1867   16.8465 H   0  0  0  0  0  0  0  0  0  0  0  0
    5.8900    4.3560   17.1140 C   0  0  0  0  0  0  0  0  0  0  0  0
    5.5294    4.3535   16.0840 H   0  0  0  0  0  0  0  0  0  0  0  0
    5.5170    3.3380   17.9550 C   0  0  0  0  0  0  0  0  0  0  0  0
    4.8770    2.5240   17.6093 H   0  0  0  0  0  0  0  0  0  0  0  0
    5.9880    3.3830   19.2720 C   0  0  0  0  0  0  0  0  0  0  0  0
    6.8240    4.4240   19.7400 C   0  0  0  0  0  0  0  0  0  0  0  0
    7.0950    4.1650   21.1310 C   0  0  0  0  0  0  0  0  0  0  0  0
    6.4340    2.9940   21.4270 C   0  0  0  0  0  0  0  0  0  0  0  0
    6.3730    2.3820   22.4940 O   0  0  0  0  0  0  0  0  0  0  0  0
    5.7630    2.5310   20.3220 N   0  0  0  0  0  0  0  0  0  0  0  0
    5.1995    1.7039   20.2876 H   0  0  0  0  0  0  0  0  0  0  0  0
    7.9420    5.0530   22.0360 C   0  0  0  0  0  0  0  0  0  0  0  0
    7.9725    6.1125   21.7849 H   0  0  0  0  0  0  0  0  0  0  0  0
    8.7500    4.6160   23.2540 C   0  0  0  0  0  0  0  0  0  0  0  0
    9.7100    5.4700   23.7810 C   0  0  0  0  0  0  0  0  0  0  0  0
    9.8782    6.4405   23.3156 H   0  0  0  0  0  0  0  0  0  0  0  0
   10.4610    5.1000   24.8980 C   0  0  0  0  0  0  0  0  0  0  0  0
   11.2101    5.7840   25.2922 H   0  0  0  0  0  0  0  0  0  0  0  0
   10.2640    3.8680   25.5130 C   0  0  0  0  0  0  0  0  0  0  0  0
    9.2980    3.0170   24.9820 C   0  0  0  0  0  0  0  0  0  0  0  0
    9.1233    2.0458   25.4464 H   0  0  0  0  0  0  0  0  0  0  0  0
    8.5480    3.3860   23.8630 C   0  0  0  0  0  0  0  0  0  0  0  0
    7.7972    2.7012   23.4641 H   0  0  0  0  0  0  0  0  0  0  0  0
   11.0300    3.4890   26.6500 N   0  0  0  0  0  0  0  0  0  0  0  0
   10.6690    2.2640   27.4210 C   0  0  0  0  0  0  0  0  0  0  0  0
   10.3889    1.4879   26.7087 H   0  0  0  0  0  0  0  0  0  0  0  0
    9.8136    2.5033   28.0527 H   0  0  0  0  0  0  0  0  0  0  0  0
   11.7640    1.7130   28.3060 C   0  0  0  0  0  0  0  0  0  0  0  0
   12.4960    1.2230   27.6640 H   0  0  0  0  0  0  0  0  0  0  0  0
   11.3146    0.9768   28.9724 H   0  0  0  0  0  0  0  0  0  0  0  0
   12.4930    2.7110   29.1520 N   0  0  0  0  0  0  0  0  0  0  0  0
   13.2630    2.2770   30.2810 C   0  0  0  0  0  0  0  0  0  0  0  0
   12.9536    1.3397   30.7452 H   0  0  0  0  0  0  0  0  0  0  0  0
   14.2360    2.8450   30.7850 O   0  0  0  0  0  0  0  0  0  0  0  0
   12.8190    3.9910   28.4260 C   0  0  0  0  0  0  0  0  0  0  0  0
   13.0030    4.7599   29.1763 H   0  0  0  0  0  0  0  0  0  0  0  0
   13.7278    3.8221   27.8484 H   0  0  0  0  0  0  0  0  0  0  0  0
   11.7510    4.5220   27.4680 C   0  0  0  0  0  0  0  0  0  0  0  0
   12.2349    5.2147   26.7795 H   0  0  0  0  0  0  0  0  0  0  0  0
   11.0083    5.0572   28.0597 H   0  0  0  0  0  0  0  0  0  0  0  0
  1  2  1  0  0  0  0
  2  3  1  0  0  0  0
  2 10  2  0  0  0  0
  3  4  1  0  0  0  0
  3  5  2  0  0  0  0
  5  6  1  0  0  0  0
  5  7  1  0  0  0  0
  7  8  1  0  0  0  0
  7  9  2  0  0  0  0
  9 10  1  0  0  0  0
  9 14  1  0  0  0  0
 10 11  1  0  0  0  0
 11 12  1  0  0  0  0
 11 16  2  0  0  0  0
 12 13  2  0  0  0  0
 12 14  1  0  0  0  0
 14 15  1  0  0  0  0
 16 17  1  0  0  0  0
 16 18  1  0  0  0  0
 18 19  1  0  0  0  0
 18 26  2  0  0  0  0
 19 20  1  0  0  0  0
 19 21  2  0  0  0  0
 21 22  1  0  0  0  0
 21 23  1  0  0  0  0
 23 24  2  0  0  0  0
 23 28  1  0  0  0  0
 24 25  1  0  0  0  0
 24 26  1  0  0  0  0
 26 27  1  0  0  0  0
 28 29  1  0  0  0  0
 28 42  1  0  0  0  0
 29 30  1  0  0  0  0
 29 31  1  0  0  0  0
 29 32  1  0  0  0  0
 32 33  1  0  0  0  0
 32 34  1  0  0  0  0
 32 35  1  0  0  0  0
 35 36  1  0  0  0  0
 35 39  1  0  0  0  0
 36 37  1  0  0  0  0
 36 38  2  0  0  0  0
 39 40  1  0  0  0  0
 39 41  1  0  0  0  0
 39 42  1  0  0  0  0
 42 43  1  0  0  0  0
 42 44  1  0  0  0  0
M  END
>  <IX> 
3620

> <Type> 
L

$$$$
1fgi_l
 OpenBabel04212516193D

 37 39  0  0  0  0  0  0  0  0999 V2000
    8.2017    5.6395   19.3487 H   0  0  0  0  0  0  0  0  0  0  0  0
    7.4410    4.9330   19.0220 C   0  0  0  0  0  0  0  0  0  0  0  0
    6.8970    5.0140   17.7340 C   0  0  0  0  0  0  0  0  0  0  0  0
    7.2385    5.7939   17.0540 H   0  0  0  0  0  0  0  0  0  0  0  0
    5.9110    4.0990   17.3010 C   0  0  0  0  0  0  0  0  0  0  0  0
    5.5084    4.1859   16.2905 H   0  0  0  0  0  0  0  0  0  0  0  0
    5.4480    3.1030   18.1220 C   0  0  0  0  0  0  0  0  0  0  0  0
    4.6861    2.3981   17.7838 H   0  0  0  0  0  0  0  0  0  0  0  0
    5.9940    3.0250   19.4180 C   0  0  0  0  0  0  0  0  0  0  0  0
    6.9850    3.9220   19.8820 C   0  0  0  0  0  0  0  0  0  0  0  0
    7.3090    3.5360   21.2270 C   0  0  0  0  0  0  0  0  0  0  0  0
    6.5130    2.4730   21.5170 C   0  0  0  0  0  0  0  0  0  0  0  0
    6.4480    1.8200   22.5560 O   0  0  0  0  0  0  0  0  0  0  0  0
    5.7320    2.1500   20.4400 N   0  0  0  0  0  0  0  0  0  0  0  0
    5.0746    1.3954   20.4036 H   0  0  0  0  0  0  0  0  0  0  0  0
    8.3610    4.1930   22.1030 C   0  0  0  0  0  0  0  0  0  0  0  0
    8.7567    5.1401   21.7390 H   0  0  0  0  0  0  0  0  0  0  0  0
    8.9240    3.7030   23.4050 C   0  0  0  0  0  0  0  0  0  0  0  0
    9.9880    4.2570   24.0490 C   0  0  0  0  0  0  0  0  0  0  0  0
   10.8120    5.4240   23.5350 C   0  0  0  0  0  0  0  0  0  0  0  0
   10.1417    6.1998   23.1650 H   0  0  0  0  0  0  0  0  0  0  0  0
   11.4147    5.8233   24.3507 H   0  0  0  0  0  0  0  0  0  0  0  0
   11.7120    4.9870   22.4300 C   0  0  0  0  0  0  0  0  0  0  0  0
   12.4457    4.2970   22.8468 H   0  0  0  0  0  0  0  0  0  0  0  0
   11.1056    4.4678   21.6878 H   0  0  0  0  0  0  0  0  0  0  0  0
   12.4730    6.1130   21.7160 C   0  0  0  0  0  0  0  0  0  0  0  0
   11.9370    7.2490   21.5710 O   0  0  0  0  0  0  0  0  0  0  0  0
   13.6100    5.8150   21.2600 O   0  0  0  0  0  0  0  0  0  0  0  0
   10.1990    3.5000   25.1750 C   0  0  0  0  0  0  0  0  0  0  0  0
   11.2890    3.7210   26.2330 C   0  0  0  0  0  0  0  0  0  0  0  0
   12.2659    3.7394   25.7499 H   0  0  0  0  0  0  0  0  0  0  0  0
   11.2588    2.9101   26.9607 H   0  0  0  0  0  0  0  0  0  0  0  0
   11.1163    4.6705   26.7397 H   0  0  0  0  0  0  0  0  0  0  0  0
    9.2110    2.5460   25.1870 C   0  0  0  0  0  0  0  0  0  0  0  0
    9.0733    1.7948   25.9648 H   0  0  0  0  0  0  0  0  0  0  0  0
    8.4470    2.6740   24.1080 N   0  0  0  0  0  0  0  0  0  0  0  0
    7.6596    2.1041   23.8663 H   0  0  0  0  0  0  0  0  0  0  0  0
  1  2  1  0  0  0  0
  2  3  1  0  0  0  0
  2 10  2  0  0  0  0
  3  4  1  0  0  0  0
  3  5  2  0  0  0  0
  5  6  1  0  0  0  0
  5  7  1  0  0  0  0
  7  8  1  0  0  0  0
  7  9  2  0  0  0  0
  9 10  1  0  0  0  0
  9 14  1  0  0  0  0
 10 11  1  0  0  0  0
 11 12  1  0  0  0  0
 11 16  2  0  0  0  0
 12 13  2  0  0  0  0
 12 14  1  0  0  0  0
 14 15  1  0  0  0  0
 16 17  1  0  0  0  0
 16 18  1  0  0  0  0
 18 19  2  0  0  0  0
 18 36  1  0  0  0  0
 19 20  1  0  0  0  0
 19 29  1  0  0  0  0
 20 21  1  0  0  0  0
 20 22  1  0  0  0  0
 20 23  1  0  0  0  0
 23 24  1  0  0  0  0
 23 25  1  0  0  0  0
 23 26  1  0  0  0  0
 26 27  2  0  0  0  0
 26 28  2  0  0  0  0
 29 30  1  0  0  0  0
 29 34  2  0  0  0  0
 30 31  1  0  0  0  0
 30 32  1  0  0  0  0
 30 33  1  0  0  0  0
 34 35  1  0  0  0  0
 34 36  1  0  0  0  0
 36 37  1  0  0  0  0
M  END
>  <IX> 
3621

> <Type> 
L

$$$$
2fgi_l
 OpenBabel04212516193D

 79 81  0  0  0  0  0  0  0  0999 V2000
    9.6247    5.8095   30.1930 H   0  0  0  0  0  0  0  0  0  0  0  0
    9.7300    6.0540   29.1360 C   0  0  0  0  0  0  0  0  0  0  0  0
    9.0438    5.4414   28.5513 H   0  0  0  0  0  0  0  0  0  0  0  0
    9.4977    7.1077   28.9819 H   0  0  0  0  0  0  0  0  0  0  0  0
   11.1620    5.7790   28.6910 C   0  0  0  0  0  0  0  0  0  0  0  0
   11.2620    6.0101   27.6305 H   0  0  0  0  0  0  0  0  0  0  0  0
   11.8457    6.4043   29.2652 H   0  0  0  0  0  0  0  0  0  0  0  0
   11.4990    4.3260   28.9210 N   0  0  0  0  0  0  0  0  0  0  0  0
   12.8670    4.0160   29.4650 C   0  0  0  0  0  0  0  0  0  0  0  0
   13.6249    4.3921   28.7778 H   0  0  0  0  0  0  0  0  0  0  0  0
   12.9786    2.9372   29.5741 H   0  0  0  0  0  0  0  0  0  0  0  0
   13.0390    4.6910   30.8380 C   0  0  0  0  0  0  0  0  0  0  0  0
   13.8045    4.1648   31.4082 H   0  0  0  0  0  0  0  0  0  0  0  0
   12.0942    4.6570   31.3805 H   0  0  0  0  0  0  0  0  0  0  0  0
   13.3401    5.7291   30.6973 H   0  0  0  0  0  0  0  0  0  0  0  0
   10.8880    3.3130   27.9900 C   0  0  0  0  0  0  0  0  0  0  0  0
   10.0147    2.8809   28.4786 H   0  0  0  0  0  0  0  0  0  0  0  0
   11.6240    2.5310   27.8033 H   0  0  0  0  0  0  0  0  0  0  0  0
   10.4530    3.8870   26.6560 C   0  0  0  0  0  0  0  0  0  0  0  0
    9.9986    4.8639   26.8213 H   0  0  0  0  0  0  0  0  0  0  0  0
   11.3276    3.9969   26.0148 H   0  0  0  0  0  0  0  0  0  0  0  0
    9.4540    2.9910   25.9730 C   0  0  0  0  0  0  0  0  0  0  0  0
    9.9294    2.0384   25.7394 H   0  0  0  0  0  0  0  0  0  0  0  0
    8.6101    2.8216   26.6417 H   0  0  0  0  0  0  0  0  0  0  0  0
    8.9500    3.6270   24.6840 C   0  0  0  0  0  0  0  0  0  0  0  0
    8.7165    4.6744   24.8752 H   0  0  0  0  0  0  0  0  0  0  0  0
    9.7330    3.5613   23.9285 H   0  0  0  0  0  0  0  0  0  0  0  0
    7.7510    2.9590   24.1820 N   0  0  0  0  0  0  0  0  0  0  0  0
    7.3030    2.3353   24.8232 H   0  0  0  0  0  0  0  0  0  0  0  0
    7.1310    3.0720   22.9050 C   0  0  0  0  0  0  0  0  0  0  0  0
    6.3230    2.0940   22.5420 N   0  0  0  0  0  0  0  0  0  0  0  0
    5.7400    2.2150   21.2950 C   0  0  0  0  0  0  0  0  0  0  0  0
    5.0535    1.4443   20.9395 H   0  0  0  0  0  0  0  0  0  0  0  0
    6.0240    3.3180   20.4860 C   0  0  0  0  0  0  0  0  0  0  0  0
    6.9000    4.3240   20.9760 C   0  0  0  0  0  0  0  0  0  0  0  0
    7.4290    4.1450   22.1800 N   0  0  0  0  0  0  0  0  0  0  0  0
    7.1900    5.3550   20.2030 N   0  0  0  0  0  0  0  0  0  0  0  0
    6.6830    5.4990   18.9790 C   0  0  0  0  0  0  0  0  0  0  0  0
    7.0700    6.6520   18.2320 N   0  0  0  0  0  0  0  0  0  0  0  0
    6.6217    6.7264   17.3398 H   0  0  0  0  0  0  0  0  0  0  0  0
    7.9120    7.6430   18.4980 C   0  0  0  0  0  0  0  0  0  0  0  0
    8.2250    8.4490   17.6210 O   0  0  0  0  0  0  0  0  0  0  0  0
    8.3600    7.7640   19.7500 N   0  0  0  0  0  0  0  0  0  0  0  0
    8.0683    7.0718   20.4106 H   0  0  0  0  0  0  0  0  0  0  0  0
    9.2370    8.8210   20.2280 C   0  0  0  0  0  0  0  0  0  0  0  0
   10.5680    8.7190   19.5510 C   0  0  0  0  0  0  0  0  0  0  0  0
   10.4446    8.8825   18.4804 H   0  0  0  0  0  0  0  0  0  0  0  0
   10.9871    7.7273   19.7211 H   0  0  0  0  0  0  0  0  0  0  0  0
   11.2416    9.4729   19.9584 H   0  0  0  0  0  0  0  0  0  0  0  0
    8.6280   10.1930   19.9490 C   0  0  0  0  0  0  0  0  0  0  0  0
    9.2082   10.9594   20.4630 H   0  0  0  0  0  0  0  0  0  0  0  0
    7.5993   10.2138   20.3087 H   0  0  0  0  0  0  0  0  0  0  0  0
    8.6418   10.3853   18.8762 H   0  0  0  0  0  0  0  0  0  0  0  0
    9.4340    8.6440   21.7060 C   0  0  0  0  0  0  0  0  0  0  0  0
    9.7582    7.6235   21.9097 H   0  0  0  0  0  0  0  0  0  0  0  0
    8.4943    8.8368   22.2235 H   0  0  0  0  0  0  0  0  0  0  0  0
   10.1926    9.3432   22.0577 H   0  0  0  0  0  0  0  0  0  0  0  0
    5.8210    4.5680   18.4330 C   0  0  0  0  0  0  0  0  0  0  0  0
    5.4770    3.4670   19.1980 C   0  0  0  0  0  0  0  0  0  0  0  0
    4.7859    2.7192   18.8044 H   0  0  0  0  0  0  0  0  0  0  0  0
    5.2980    4.6730   17.1530 C   0  0  0  0  0  0  0  0  0  0  0  0
    5.8270    3.8790   16.1330 C   0  0  0  0  0  0  0  0  0  0  0  0
    6.6417    3.1881   16.3483 H   0  0  0  0  0  0  0  0  0  0  0  0
    5.3200    3.9650   14.8510 C   0  0  0  0  0  0  0  0  0  0  0  0
    5.8570    3.1510   13.8580 O   0  0  0  0  0  0  0  0  0  0  0  0
    5.0810    2.5360   12.8020 C   0  0  0  0  0  0  0  0  0  0  0  0
    4.5230    3.3042   12.2666 H   0  0  0  0  0  0  0  0  0  0  0  0
    4.3855    1.8164   13.2340 H   0  0  0  0  0  0  0  0  0  0  0  0
    5.7501    2.0243   12.1102 H   0  0  0  0  0  0  0  0  0  0  0  0
    4.2880    4.8070   14.5410 C   0  0  0  0  0  0  0  0  0  0  0  0
    3.8910    4.8588   13.5258 H   0  0  0  0  0  0  0  0  0  0  0  0
    3.7620    5.5890   15.5520 C   0  0  0  0  0  0  0  0  0  0  0  0
    4.2470    5.5340   16.8560 C   0  0  0  0  0  0  0  0  0  0  0  0
    3.8073    6.1571   17.6335 H   0  0  0  0  0  0  0  0  0  0  0  0
    2.6890    6.4300   15.2610 O   0  0  0  0  0  0  0  0  0  0  0  0
    1.7620    6.2110   14.1600 C   0  0  0  0  0  0  0  0  0  0  0  0
    0.9701    6.9590   14.1975 H   0  0  0  0  0  0  0  0  0  0  0  0
    1.3259    5.2157   14.2447 H   0  0  0  0  0  0  0  0  0  0  0  0
    2.2960    6.2943   13.2134 H   0  0  0  0  0  0  0  0  0  0  0  0
  1  2  1  0  0  0  0
  2  3  1  0  0  0  0
  2  4  1  0  0  0  0
  2  5  1  0  0  0  0
  5  6  1  0  0  0  0
  5  7  1  0  0  0  0
  5  8  1  0  0  0  0
  8  9  1  0  0  0  0
  8 16  1  0  0  0  0
  9 10  1  0  0  0  0
  9 11  1  0  0  0  0
  9 12  1  0  0  0  0
 12 13  1  0  0  0  0
 12 14  1  0  0  0  0
 12 15  1  0  0  0  0
 16 17  1  0  0  0  0
 16 18  1  0  0  0  0
 16 19  1  0  0  0  0
 19 20  1  0  0  0  0
 19 21  1  0  0  0  0
 19 22  1  0  0  0  0
 22 23  1  0  0  0  0
 22 24  1  0  0  0  0
 22 25  1  0  0  0  0
 25 26  1  0  0  0  0
 25 27  1  0  0  0  0
 25 28  1  0  0  0  0
 28 29  1  0  0  0  0
 28 30  1  0  0  0  0
 30 31  1  0  0  0  0
 30 36  2  0  0  0  0
 31 32  2  0  0  0  0
 32 33  1  0  0  0  0
 32 34  1  0  0  0  0
 34 35  2  0  0  0  0
 34 59  1  0  0  0  0
 35 36  1  0  0  0  0
 35 37  1  0  0  0  0
 37 38  2  0  0  0  0
 38 39  1  0  0  0  0
 38 58  1  0  0  0  0
 39 40  1  0  0  0  0
 39 41  1  0  0  0  0
 41 42  2  0  0  0  0
 41 43  1  0  0  0  0
 43 44  1  0  0  0  0
 43 45  1  0  0  0  0
 45 46  1  0  0  0  0
 45 50  1  0  0  0  0
 45 54  1  0  0  0  0
 46 47  1  0  0  0  0
 46 48  1  0  0  0  0
 46 49  1  0  0  0  0
 50 51  1  0  0  0  0
 50 52  1  0  0  0  0
 50 53  1  0  0  0  0
 54 55  1  0  0  0  0
 54 56  1  0  0  0  0
 54 57  1  0  0  0  0
 58 59  2  0  0  0  0
 58 61  1  0  0  0  0
 59 60  1  0  0  0  0
 61 62  1  0  0  0  0
 61 73  2  0  0  0  0
 62 63  1  0  0  0  0
 62 64  2  0  0  0  0
 64 65  1  0  0  0  0
 64 70  1  0  0  0  0
 65 66  1  0  0  0  0
 66 67  1  0  0  0  0
 66 68  1  0  0  0  0
 66 69  1  0  0  0  0
 70 71  1  0  0  0  0
 70 72  2  0  0  0  0
 72 73  1  0  0  0  0
 72 75  1  0  0  0  0
 73 74  1  0  0  0  0
 75 76  1  0  0  0  0
 76 77  1  0  0  0  0
 76 78  1  0  0  0  0
 76 79  1  0  0  0  0
M  END
>  <IX> 
3622

> <Type> 
L

$$$$
3c4f_l
 OpenBabel04212516193D

 32 34  0  0  0  0  0  0  0  0999 V2000
    4.4408    2.5334   12.9544 H   0  0  0  0  0  0  0  0  0  0  0  0
    5.4000    2.0210   12.8800 C   0  0  0  0  0  0  0  0  0  0  0  0
    5.2512    0.9497   13.0154 H   0  0  0  0  0  0  0  0  0  0  0  0
    5.8355    2.2060   11.8981 H   0  0  0  0  0  0  0  0  0  0  0  0
    6.2850    2.5130   13.8960 O   0  0  0  0  0  0  0  0  0  0  0  0
    5.8310    3.4370   14.8170 C   0  0  0  0  0  0  0  0  0  0  0  0
    6.5540    3.6050   15.9860 C   0  0  0  0  0  0  0  0  0  0  0  0
    7.4658    3.0301   16.1448 H   0  0  0  0  0  0  0  0  0  0  0  0
    6.1250    4.4960   16.9510 C   0  0  0  0  0  0  0  0  0  0  0  0
    4.9500    5.2000   16.7580 C   0  0  0  0  0  0  0  0  0  0  0  0
    4.6050    5.8983   17.5190 H   0  0  0  0  0  0  0  0  0  0  0  0
    4.2060    5.0210   15.5990 C   0  0  0  0  0  0  0  0  0  0  0  0
    3.2752    5.5703   15.4538 H   0  0  0  0  0  0  0  0  0  0  0  0
    4.6520    4.1380   14.6250 C   0  0  0  0  0  0  0  0  0  0  0  0
    4.0744    3.9957   13.7099 H   0  0  0  0  0  0  0  0  0  0  0  0
    6.9400    4.6490   18.2150 C   0  0  0  0  0  0  0  0  0  0  0  0
    8.0029    4.5834   17.9826 H   0  0  0  0  0  0  0  0  0  0  0  0
    6.7285    5.6119   18.6799 H   0  0  0  0  0  0  0  0  0  0  0  0
    6.5410    3.5140   19.1600 C   0  0  0  0  0  0  0  0  0  0  0  0
    7.0870    3.2210   20.5030 C   0  0  0  0  0  0  0  0  0  0  0  0
    8.0430    3.8480   21.2630 C   0  0  0  0  0  0  0  0  0  0  0  0
    8.5627    4.7422   20.9220 H   0  0  0  0  0  0  0  0  0  0  0  0
    8.3000    3.2620   22.4950 C   0  0  0  0  0  0  0  0  0  0  0  0
    9.0696    3.6792   23.1416 H   0  0  0  0  0  0  0  0  0  0  0  0
    7.5770    2.1380   22.9120 C   0  0  0  0  0  0  0  0  0  0  0  0
    7.7936    1.6930   23.8824 H   0  0  0  0  0  0  0  0  0  0  0  0
    6.6240    1.5970   22.1430 N   0  0  0  0  0  0  0  0  0  0  0  0
    6.4020    2.1390   20.9460 C   0  0  0  0  0  0  0  0  0  0  0  0
    5.5370    1.7580   19.9970 N   0  0  0  0  0  0  0  0  0  0  0  0
    4.9221    0.9700   20.0570 H   0  0  0  0  0  0  0  0  0  0  0  0
    5.6180    2.5630   18.9920 C   0  0  0  0  0  0  0  0  0  0  0  0
    4.9973    2.4752   18.0985 H   0  0  0  0  0  0  0  0  0  0  0  0
  1  2  1  0  0  0  0
  2  3  1  0  0  0  0
  2  4  1  0  0  0  0
  2  5  1  0  0  0  0
  5  6  1  0  0  0  0
  6  7  1  0  0  0  0
  6 14  2  0  0  0  0
  7  8  1  0  0  0  0
  7  9  2  0  0  0  0
  9 10  1  0  0  0  0
  9 16  1  0  0  0  0
 10 11  1  0  0  0  0
 10 12  2  0  0  0  0
 12 13  1  0  0  0  0
 12 14  1  0  0  0  0
 14 15  1  0  0  0  0
 16 17  1  0  0  0  0
 16 18  1  0  0  0  0
 16 19  1  0  0  0  0
 19 20  1  0  0  0  0
 19 31  2  0  0  0  0
 20 21  1  0  0  0  0
 20 28  2  0  0  0  0
 21 22  1  0  0  0  0
 21 23  2  0  0  0  0
 23 24  1  0  0  0  0
 23 25  1  0  0  0  0
 25 26  1  0  0  0  0
 25 27  2  0  0  0  0
 27 28  1  0  0  0  0
 28 29  1  0  0  0  0
 29 30  1  0  0  0  0
 29 31  1  0  0  0  0
 31 32  1  0  0  0  0
M  END
>  <IX> 
3623

> <Type> 
L

$$$$
4uwc_l
 OpenBabel04212516193D

 41 43  0  0  0  0  0  0  0  0999 V2000
   86.3820    2.0480   10.2360 H   0  0  0  0  0  0  0  0  0  0  0  0
   86.9120    1.0980   10.1900 C   0  0  0  0  0  0  0  0  0  0  0  0
   86.8720    0.1350    9.1820 C   0  0  0  0  0  0  0  0  0  0  0  0
   86.1360    0.1240    7.9900 N   0  0  0  0  0  0  0  0  0  0  0  0
   86.2930   -0.7000    7.4200 H   0  0  0  0  0  0  0  0  0  0  0  0
   85.3150    1.1380    7.5270 C   0  0  0  0  0  0  0  0  0  0  0  0
   85.2570    2.2290    8.0870 O   0  0  0  0  0  0  0  0  0  0  0  0
   84.4940    0.8570    6.3000 C   0  0  0  0  0  0  0  0  0  0  0  0
   83.3530    1.6330    6.0860 C   0  0  0  0  0  0  0  0  0  0  0  0
   83.0990    2.3830    6.8320 H   0  0  0  0  0  0  0  0  0  0  0  0
   82.5640    1.4300    4.9560 C   0  0  0  0  0  0  0  0  0  0  0  0
   81.4300    2.1350    4.6480 O   0  0  0  0  0  0  0  0  0  0  0  0
   81.1530    3.3260    5.3890 C   0  0  0  0  0  0  0  0  0  0  0  0
   80.2515    3.6852    4.8938 H   0  0  0  0  0  0  0  0  0  0  0  0
   81.9367    4.0790    5.3150 H   0  0  0  0  0  0  0  0  0  0  0  0
   80.9271    3.1380    6.4371 H   0  0  0  0  0  0  0  0  0  0  0  0
   82.9180    0.4330    4.0270 C   0  0  0  0  0  0  0  0  0  0  0  0
   84.0630   -0.3230    4.2370 C   0  0  0  0  0  0  0  0  0  0  0  0
   84.4050   -1.0570    3.5110 H   0  0  0  0  0  0  0  0  0  0  0  0
   84.8400   -0.1100    5.3600 C   0  0  0  0  0  0  0  0  0  0  0  0
   85.7550   -0.6880    5.4660 H   0  0  0  0  0  0  0  0  0  0  0  0
   82.0720    0.3060    2.9560 O   0  0  0  0  0  0  0  0  0  0  0  0
   82.4160   -0.6230    1.9260 C   0  0  0  0  0  0  0  0  0  0  0  0
   82.3621   -1.6087    2.3844 H   0  0  0  0  0  0  0  0  0  0  0  0
   81.6615   -0.5508    1.1433 H   0  0  0  0  0  0  0  0  0  0  0  0
   83.3899   -0.5067    1.4525 H   0  0  0  0  0  0  0  0  0  0  0  0
   87.6460   -0.9120    9.4550 N   0  0  0  0  0  0  0  0  0  0  0  0
   88.1900   -0.5950   10.6750 N   0  0  0  0  0  0  0  0  0  0  0  0
   88.8270   -1.2600   11.1010 H   0  0  0  0  0  0  0  0  0  0  0  0
   87.7880    0.6080   11.1310 C   0  0  0  0  0  0  0  0  0  0  0  0
   88.1900    1.1590   12.4380 C   0  0  0  0  0  0  0  0  0  0  0  0
   88.1720    0.3520   13.5730 C   0  0  0  0  0  0  0  0  0  0  0  0
   88.0060   -0.7220   13.5130 H   0  0  0  0  0  0  0  0  0  0  0  0
   88.3910    0.8980   14.8270 C   0  0  0  0  0  0  0  0  0  0  0  0
   88.4660    0.2370   15.6880 H   0  0  0  0  0  0  0  0  0  0  0  0
   88.6360    2.2460   14.9670 C   0  0  0  0  0  0  0  0  0  0  0  0
   88.8700    2.6550   15.9480 H   0  0  0  0  0  0  0  0  0  0  0  0
   88.6230    3.0620   13.8530 C   0  0  0  0  0  0  0  0  0  0  0  0
   88.7810    4.1320   13.9750 H   0  0  0  0  0  0  0  0  0  0  0  0
   88.3440    2.5320   12.6020 C   0  0  0  0  0  0  0  0  0  0  0  0
   88.2970    3.1950   11.7410 H   0  0  0  0  0  0  0  0  0  0  0  0
  1  2  1  0  0  0  0
  2  3  1  0  0  0  0
  2 30  2  0  0  0  0
  3  4  1  0  0  0  0
  3 27  2  0  0  0  0
  4  5  1  0  0  0  0
  4  6  1  0  0  0  0
  6  7  2  0  0  0  0
  6  8  1  0  0  0  0
  8  9  2  0  0  0  0
  8 20  1  0  0  0  0
  9 10  1  0  0  0  0
  9 11  1  0  0  0  0
 11 12  1  0  0  0  0
 11 17  2  0  0  0  0
 12 13  1  0  0  0  0
 13 14  1  0  0  0  0
 13 15  1  0  0  0  0
 13 16  1  0  0  0  0
 17 18  1  0  0  0  0
 17 22  1  0  0  0  0
 18 19  1  0  0  0  0
 18 20  2  0  0  0  0
 20 21  1  0  0  0  0
 22 23  1  0  0  0  0
 23 24  1  0  0  0  0
 23 25  1  0  0  0  0
 23 26  1  0  0  0  0
 27 28  1  0  0  0  0
 28 29  1  0  0  0  0
 28 30  1  0  0  0  0
 30 31  1  0  0  0  0
 31 32  2  0  0  0  0
 31 40  1  0  0  0  0
 32 33  1  0  0  0  0
 32 34  1  0  0  0  0
 34 35  1  0  0  0  0
 34 36  2  0  0  0  0
 36 37  1  0  0  0  0
 36 38  1  0  0  0  0
 38 39  1  0  0  0  0
 38 40  2  0  0  0  0
 40 41  1  0  0  0  0
M  END
>  <IX> 
3624

> <Type> 
L

$$$$
