@<TRIPOS>MOLECULE
4uwc_l
    41    43     1
SMALL       
USER_CHARGES
@<TRIPOS>ATOM
    1 H2     86.3820    2.0480   10.2360 H      1 4Y01773    0.1500
    2 C2     86.9120    1.0980   10.1900 C.ar   1 4Y01773   -0.1500
    3 C3     86.8720    0.1350    9.1820 C.ar   1 4Y01773    0.3520
    4 N6     86.1360    0.1240    7.9900 N.am   1 4Y01773   -0.4930
    5 H6     86.2930   -0.7000    7.4200 H      1 4Y01773    0.3700
    6 C7     85.3150    1.1380    7.5270 C.2    1 4Y01773    0.5440
    7 O2     85.2570    2.2290    8.0870 O.2    1 4Y01773   -0.5700
    8 C9     84.4940    0.8570    6.3000 C.ar   1 4Y01773    0.0860
    9 C10    83.3530    1.6330    6.0860 C.ar   1 4Y01773   -0.1500
   10 H10    83.0990    2.3830    6.8320 H      1 4Y01773    0.1500
   11 C11    82.5640    1.4300    4.9560 C.ar   1 4Y01773    0.0830
   12 O17    81.4300    2.1350    4.6480 O.3    1 4Y01773   -0.3630
   13 C21    81.1530    3.3260    5.3890 C.3    1 4Y01773    0.2800
   14 H211   80.2515    3.6852    4.8938 H      1 4Y01773    0.0000
   15 H212   81.9367    4.0790    5.3150 H      1 4Y01773    0.0000
   16 H213   80.9271    3.1380    6.4371 H      1 4Y01773    0.0000
   17 C12    82.9180    0.4330    4.0270 C.ar   1 4Y01773    0.0830
   18 C16    84.0630   -0.3230    4.2370 C.ar   1 4Y01773   -0.1500
   19 H16    84.4050   -1.0570    3.5110 H      1 4Y01773    0.1500
   20 C15    84.8400   -0.1100    5.3600 C.ar   1 4Y01773   -0.1500
   21 H15    85.7550   -0.6880    5.4660 H      1 4Y01773    0.1500
   22 O18    82.0720    0.3060    2.9560 O.3    1 4Y01773   -0.3630
   23 C      82.4160   -0.6230    1.9260 C.3    1 4Y01773    0.2800
   24 HC1    82.3621   -1.6087    2.3844 H      1 4Y01773    0.0000
   25 HC2    81.6615   -0.5508    1.1433 H      1 4Y01773    0.0000
   26 HC3    83.3899   -0.5067    1.4525 H      1 4Y01773    0.0000
   27 N5     87.6460   -0.9120    9.4550 N.ar   1 4Y01773   -0.7070
   28 N1     88.1900   -0.5950   10.6750 N.pl3   1 4Y01773    0.3000
   29 H1     88.8270   -1.2600   11.1010 H      1 4Y01773    0.2700
   30 C4     87.7880    0.6080   11.1310 C.ar   1 4Y01773   -0.2050
   31 C13    88.1900    1.1590   12.4380 C.ar   1 4Y01773    0.0530
   32 C19    88.1720    0.3520   13.5730 C.ar   1 4Y01773   -0.1500
   33 H19    88.0060   -0.7220   13.5130 H      1 4Y01773    0.1500
   34 C23    88.3910    0.8980   14.8270 C.ar   1 4Y01773   -0.1500
   35 H23    88.4660    0.2370   15.6880 H      1 4Y01773    0.1500
   36 C24    88.6360    2.2460   14.9670 C.ar   1 4Y01773   -0.1500
   37 H24    88.8700    2.6550   15.9480 H      1 4Y01773    0.1500
   38 C22    88.6230    3.0620   13.8530 C.ar   1 4Y01773   -0.1500
   39 H22    88.7810    4.1320   13.9750 H      1 4Y01773    0.1500
   40 C20    88.3440    2.5320   12.6020 C.ar   1 4Y01773   -0.1500
   41 H20    88.2970    3.1950   11.7410 H      1 4Y01773    0.1500
@<TRIPOS>BOND
    1     1     2 1 
    2     2     3 1 
    3     2    30 2 
    4     3     4 1 
    5     3    27 2 
    6     4     5 1 
    7     4     6 1 
    8     6     7 2 
    9     6     8 1 
   10     8     9 2 
   11     8    20 1 
   12     9    10 1 
   13     9    11 1 
   14    11    12 1 
   15    11    17 2 
   16    12    13 1 
   17    13    14 1 
   18    13    15 1 
   19    13    16 1 
   20    17    18 1 
   21    17    22 1 
   22    18    19 1 
   23    18    20 2 
   24    20    21 1 
   25    22    23 1 
   26    23    24 1 
   27    23    25 1 
   28    23    26 1 
   29    27    28 1 
   30    28    29 1 
   31    28    30 1 
   32    30    31 1 
   33    31    32 2 
   34    31    40 1 
   35    32    33 1 
   36    32    34 1 
   37    34    35 1 
   38    34    36 2 
   39    36    37 1 
   40    36    38 1 
   41    38    39 1 
   42    38    40 2 
   43    40    41 1 
@<TRIPOS>SUBSTRUCTURE
    1   4Y01773      1
@<TRIPOS>CRYSIN
  207.4640   58.4220   65.9460   90.0000  107.3800   90.0000     5     0

