@<TRIPOS>MOLECULE
1h00_1
    30    32     1
SMALL       
NO_CHARGES  
@<TRIPOS>ATOM
    1 C22     3.7950   28.5970    6.0100 C.3    1 FCP1400    0.0000
    2 C1      0.3260   33.1000    7.8560 C.3    1 FCP1400    0.0000
    3 C5      1.6140   31.1970    7.6890 C.3    1 FCP1400    0.0000
    4 C4      0.7130   30.5170    8.5790 C.3    1 FCP1400    0.0000
    5 C3     -0.4010   31.2770    9.0660 C.3    1 FCP1400    0.0000
    6 C17     3.4120   29.2380    7.2190 C.3    1 FCP1400    0.0000
    7 C18     3.6480   28.5750    8.4680 C.3    1 FCP1400    0.0000
    8 C19     4.2480   27.2990    8.5010 C.3    1 FCP1400    0.0000
    9 C20     4.6280   26.6560    7.2930 C.3    1 FCP1400    0.0000
   10 N2     -0.5690   32.5630    8.6890 N.3    1 FCP1400    0.0000
   11 N6      1.3960   32.4840    7.3450 N.3    1 FCP1400    0.0000
   12 N7     -1.3980   30.7320    9.9800 N.3    1 FCP1400    0.0000
   13 N16     2.7940   30.5570    7.1260 N.3    1 FCP1400    0.0000
   14 C21     4.3990   27.3140    6.0420 C.3    1 FCP1400    0.0000
   15 O23     5.2070   25.3980    7.4400 O.3    1 FCP1400    0.0000
   16 C24     4.4640   24.1590    7.6170 C.3    1 FCP1400    0.0000
   17 C11    -3.0410   27.0090   11.5200 C.3    1 FCP1400    0.0000
   18 C10    -3.7160   28.2430   11.6750 C.3    1 FCP1400    0.0000
   19 C9     -3.1520   29.4400   11.1590 C.3    1 FCP1400    0.0000
   20 C8     -1.8930   29.4200   10.4730 C.3    1 FCP1400    0.0000
   21 C12    -1.7990   26.9590   10.8480 C.3    1 FCP1400    0.0000
   22 C13    -1.2160   28.1420   10.3240 C.3    1 FCP1400    0.0000
   23 F14    -3.8410   30.6100   11.3340 F      1 FCP1400    0.0000
   24 F15    -0.0180   28.0090    9.6920 F      1 FCP1400    0.0000
   25 C25     5.3350   22.9020    7.8250 C.3    1 FCP1400    0.0000
   26 C26     6.5250   22.6910    6.8600 C.3    1 FCP1400    0.0000
   27 N27     6.4350   21.5150    5.9360 N.3    1 FCP1400    0.0000
   28 C28     6.8330   20.2330    6.5790 C.3    1 FCP1400    0.0000
   29 C29     7.2220   21.7260    4.6860 C.3    1 FCP1400    0.0000
   30 O30     5.7560   22.8240    9.1850 O.3    1 FCP1400    0.0000
@<TRIPOS>BOND
    1     1     6 2 
    2     1    14 1 
    3     2    10 2 
    4     2    11 1 
    5     3     4 1 
    6     3    11 2 
    7     3    13 1 
    8     4     5 2 
    9     5    10 1 
   10     5    12 1 
   11     6     7 1 
   12     6    13 1 
   13     7     8 2 
   14     8     9 1 
   15     9    14 2 
   16     9    15 1 
   17    12    20 1 
   18    15    16 1 
   19    16    25 1 
   20    17    18 2 
   21    17    21 1 
   22    18    19 1 
   23    19    20 2 
   24    19    23 1 
   25    20    22 1 
   26    21    22 2 
   27    22    24 1 
   28    25    26 1 
   29    25    30 1 
   30    26    27 1 
   31    27    28 1 
   32    27    29 1 
@<TRIPOS>SUBSTRUCTURE
    1   FCP1400      1
@<TRIPOS>CRYSIN
   53.5290   72.2390   72.1370   90.0000   90.0000   90.0000    19     0

