@<TRIPOS>MOLECULE
1h00_2
    30    32     1
SMALL       
NO_CHARGES  
@<TRIPOS>ATOM
    1 C22     3.7950   28.5970    6.0100 C.3    1 FAP1300    0.0000
    2 C1      0.3260   33.1000    7.8560 C.3    1 FAP1300    0.0000
    3 C5      1.6140   31.1970    7.6890 C.3    1 FAP1300    0.0000
    4 C4      0.7130   30.5170    8.5790 C.3    1 FAP1300    0.0000
    5 C3     -0.4010   31.2770    9.0660 C.3    1 FAP1300    0.0000
    6 C17     3.4120   29.2380    7.2190 C.3    1 FAP1300    0.0000
    7 C18     3.6480   28.5750    8.4680 C.3    1 FAP1300    0.0000
    8 C19     4.2480   27.2990    8.5010 C.3    1 FAP1300    0.0000
    9 C20     4.6280   26.6560    7.2930 C.3    1 FAP1300    0.0000
   10 N2     -0.5690   32.5630    8.6890 N.3    1 FAP1300    0.0000
   11 N6      1.3960   32.4840    7.3450 N.3    1 FAP1300    0.0000
   12 N7     -1.3980   30.7320    9.9800 N.3    1 FAP1300    0.0000
   13 N16     2.7940   30.5570    7.1260 N.3    1 FAP1300    0.0000
   14 C21     4.3990   27.3140    6.0420 C.3    1 FAP1300    0.0000
   15 O23     5.2070   25.3980    7.4400 O.3    1 FAP1300    0.0000
   16 C24     4.4640   24.1590    7.6170 C.3    1 FAP1300    0.0000
   17 C11    -1.7340   27.4480   12.7920 C.3    1 FAP1300    0.0000
   18 C10    -2.8640   27.9370   12.0910 C.3    1 FAP1300    0.0000
   19 C9     -2.7310   29.0150   11.1770 C.3    1 FAP1300    0.0000
   20 C8     -1.4540   29.6170   10.9470 C.3    1 FAP1300    0.0000
   21 C12    -0.4620   28.0280   12.5840 C.3    1 FAP1300    0.0000
   22 C13    -0.3090   29.1050   11.6740 C.3    1 FAP1300    0.0000
   23 F14    -3.8490   29.4590   10.5210 F      1 FAP1300    0.0000
   24 F15     0.9450   29.6210   11.5160 F      1 FAP1300    0.0000
   25 C25     5.3960   22.9350    7.6620 C.3    1 FAP1300    0.0000
   26 C26     4.7670   21.5370    7.4440 C.3    1 FAP1300    0.0000
   27 N27     5.6170   20.3410    7.7610 N.3    1 FAP1300    0.0000
   28 C28     6.4420   19.8810    6.6120 C.3    1 FAP1300    0.0000
   29 C29     4.8050   19.2050    8.2910 C.3    1 FAP1300    0.0000
   30 O30     6.2510   22.9720    8.7540 O.3    1 FAP1300    0.0000
@<TRIPOS>BOND
    1     1     6 2 
    2     1    14 1 
    3     2    10 2 
    4     2    11 1 
    5     3     4 1 
    6     3    11 2 
    7     3    13 1 
    8     4     5 2 
    9     5    10 1 
   10     5    12 1 
   11     6     7 1 
   12     6    13 1 
   13     7     8 2 
   14     8     9 1 
   15     9    14 2 
   16     9    15 1 
   17    12    20 1 
   18    15    16 1 
   19    16    25 1 
   20    17    18 2 
   21    17    21 1 
   22    18    19 1 
   23    19    20 2 
   24    19    23 1 
   25    20    22 1 
   26    21    22 2 
   27    22    24 1 
   28    25    26 1 
   29    25    30 1 
   30    26    27 1 
   31    27    28 1 
   32    27    29 1 
@<TRIPOS>SUBSTRUCTURE
    1   FAP1300      1
@<TRIPOS>CRYSIN
   53.5290   72.2390   72.1370   90.0000   90.0000   90.0000    19     0

