@<TRIPOS>MOLECULE
3qrt_1
    28    30     1
SMALL       
NO_CHARGES  
@<TRIPOS>ATOM
    1 N01    92.4740   46.8970  -14.1860 N.3    1 X14535     0.0000
    2 N02    93.2020   46.1070  -15.0090 N.3    1 X14535     0.0000
    3 N03    91.2360   47.9650  -11.9720 N.3    1 X14535     0.0000
    4 N04    87.6810   44.6610   -6.2790 N.3    1 X14535     0.0000
    5 C05    93.9920   45.2340  -14.3410 C.3    1 X14535     0.0000
    6 C06    93.7790   45.4430  -12.9840 C.3    1 X14535     0.0000
    7 C07    92.8250   46.5050  -12.9360 C.3    1 X14535     0.0000
    8 C08    94.9170   44.2400  -14.9690 C.3    1 X14535     0.0000
    9 C09    95.8700   43.6200  -13.9030 C.3    1 X14535     0.0000
   10 C10    95.1440   43.3520  -12.5340 C.3    1 X14535     0.0000
   11 C11    94.4930   44.6480  -11.9180 C.3    1 X14535     0.0000
   12 C12    96.1350   42.7080  -11.5010 C.3    1 X14535     0.0000
   13 C13    92.3110   47.0960  -11.8130 C.3    1 X14535     0.0000
   14 C14    90.6030   48.7110  -10.8700 C.3    1 X14535     0.0000
   15 C15    89.6530   47.9030  -10.0270 C.3    1 X14535     0.0000
   16 C16    88.9980   48.5660   -8.9700 C.3    1 X14535     0.0000
   17 C17    88.1100   47.8620   -8.1390 C.3    1 X14535     0.0000
   18 C18    87.8840   46.4930   -8.3760 C.3    1 X14535     0.0000
   19 C19    88.5310   45.8110   -9.4310 C.3    1 X14535     0.0000
   20 C20    89.4190   46.5170  -10.2610 C.3    1 X14535     0.0000
   21 C21    97.2490   43.6760  -11.0840 C.3    1 X14535     0.0000
   22 C22    96.7870   41.4820  -12.1210 C.3    1 X14535     0.0000
   23 C23    95.3660   42.2970  -10.2440 C.3    1 X14535     0.0000
   24 C24    94.2120   41.3330  -10.5580 C.3    1 X14535     0.0000
   25 O25    92.7860   46.9000  -10.7000 O.3    1 X14535     0.0000
   26 O26    85.9830   46.5740   -6.5840 O.3    1 X14535     0.0000
   27 O27    85.9530   44.7970   -8.1760 O.3    1 X14535     0.0000
   28 S28    86.7840   45.6130   -7.3470 S.3    1 X14535     0.0000
@<TRIPOS>BOND
    1     1     2 1 
    2     1     7 2 
    3     2     5 2 
    4     3    13 1 
    5     3    14 1 
    6     4    28 1 
    7     5     6 1 
    8     5     8 1 
    9     6     7 1 
   10     6    11 1 
   11     7    13 1 
   12     8     9 1 
   13     9    10 1 
   14    10    11 1 
   15    10    12 1 
   16    12    21 1 
   17    12    22 1 
   18    12    23 1 
   19    13    25 2 
   20    14    15 1 
   21    15    16 1 
   22    15    20 2 
   23    16    17 2 
   24    17    18 1 
   25    18    19 2 
   26    18    28 1 
   27    19    20 1 
   28    23    24 1 
   29    26    28 2 
   30    27    28 2 
@<TRIPOS>SUBSTRUCTURE
    1   X14535       1
@<TRIPOS>CRYSIN
   53.6800   71.7700   72.6000   90.0000   90.0000   90.0000    19     0

