@<TRIPOS>MOLECULE
3r7i_1
    23    24     1
SMALL       
NO_CHARGES  
@<TRIPOS>ATOM
    1 C1     94.8780   80.5520  -47.6560 C.3    1 X9I505     0.0000
    2 N1     96.1730   80.1160  -47.3920 N.3    1 X9I505     0.0000
    3 O1     96.4830   79.5410  -46.2230 O.3    1 X9I505     0.0000
    4 C2     94.5640   81.1620  -48.9120 C.3    1 X9I505     0.0000
    5 N2     93.7320   81.7890  -51.6320 N.3    1 X9I505     0.0000
    6 O2     97.1470   80.2600  -48.3020 O.3    1 X9I505     0.0000
    7 C3     93.2420   81.6130  -49.2140 C.3    1 X9I505     0.0000
    8 N3     90.9340   81.8800  -48.5380 N.3    1 X9I505     0.0000
    9 O3     92.0890   83.1530  -50.7040 O.3    1 X9I505     0.0000
   10 C4     92.1670   81.4600  -48.2370 C.3    1 X9I505     0.0000
   11 C5     92.5170   80.8360  -46.9590 C.3    1 X9I505     0.0000
   12 C6     93.8400   80.3990  -46.6890 C.3    1 X9I505     0.0000
   13 C7     93.0270   82.2130  -50.5560 C.3    1 X9I505     0.0000
   14 C8     89.7200   81.7520  -47.7270 C.3    1 X9I505     0.0000
   15 C9     89.5870   82.7530  -46.6180 C.3    1 X9I505     0.0000
   16 C10    89.4420   82.2920  -45.2820 C.3    1 X9I505     0.0000
   17 C11    89.3030   83.2150  -44.2170 C.3    1 X9I505     0.0000
   18 C12    89.3030   84.6290  -44.4620 C.3    1 X9I505     0.0000
   19 C13    89.4520   85.0920  -45.8250 C.3    1 X9I505     0.0000
   20 C14    89.5920   84.1580  -46.8880 C.3    1 X9I505     0.0000
   21 C15    89.1480   85.5290  -43.3080 C.3    1 X9I505     0.0000
   22 O16    89.0240   85.0410  -42.1530 O.3    1 X9I505     0.0000
   23 O17    89.1450   86.7580  -43.5240 O.3    1 X9I505     0.0000
@<TRIPOS>BOND
    1     1     2 1 
    2     1     4 1 
    3     1    12 2 
    4     2     3 2 
    5     2     6 2 
    6     4     7 2 
    7     5    13 1 
    8     7    10 1 
    9     7    13 1 
   10     8    10 1 
   11     8    14 1 
   12     9    13 2 
   13    10    11 2 
   14    11    12 1 
   15    14    15 1 
   16    15    16 1 
   17    15    20 2 
   18    16    17 2 
   19    17    18 1 
   20    18    19 2 
   21    18    21 1 
   22    19    20 1 
   23    21    22 2 
   24    21    23 2 
@<TRIPOS>SUBSTRUCTURE
    1   X9I505       1
@<TRIPOS>CRYSIN
   53.5390   71.8250   72.4960   90.0000   90.0000   90.0000    19     0

