1h00_1
 OpenBabel04212516173D

 30 32  0  0  1  0  0  0  0  0999 V2000
    3.7950   28.5970    6.0100 C   0  0  0  0  0  0  0  0  0  0  0  0
    0.3260   33.1000    7.8560 C   0  0  0  0  0  0  0  0  0  0  0  0
    1.6140   31.1970    7.6890 C   0  0  0  0  0  0  0  0  0  0  0  0
    0.7130   30.5170    8.5790 C   0  0  0  0  0  0  0  0  0  0  0  0
   -0.4010   31.2770    9.0660 C   0  0  0  0  0  0  0  0  0  0  0  0
    3.4120   29.2380    7.2190 C   0  0  0  0  0  0  0  0  0  0  0  0
    3.6480   28.5750    8.4680 C   0  0  0  0  0  0  0  0  0  0  0  0
    4.2480   27.2990    8.5010 C   0  0  0  0  0  0  0  0  0  0  0  0
    4.6280   26.6560    7.2930 C   0  0  0  0  0  0  0  0  0  0  0  0
   -0.5690   32.5630    8.6890 N   0  0  0  0  0  0  0  0  0  0  0  0
    1.3960   32.4840    7.3450 N   0  0  0  0  0  0  0  0  0  0  0  0
   -1.3980   30.7320    9.9800 N   0  0  0  0  0  0  0  0  0  0  0  0
    2.7940   30.5570    7.1260 N   0  0  0  0  0  0  0  0  0  0  0  0
    4.3990   27.3140    6.0420 C   0  0  0  0  0  0  0  0  0  0  0  0
    5.2070   25.3980    7.4400 O   0  0  0  0  0  0  0  0  0  0  0  0
    4.4640   24.1590    7.6170 C   0  0  0  0  0  0  0  0  0  0  0  0
   -3.0410   27.0090   11.5200 C   0  0  0  0  0  0  0  0  0  0  0  0
   -3.7160   28.2430   11.6750 C   0  0  0  0  0  0  0  0  0  0  0  0
   -3.1520   29.4400   11.1590 C   0  0  0  0  0  0  0  0  0  0  0  0
   -1.8930   29.4200   10.4730 C   0  0  0  0  0  0  0  0  0  0  0  0
   -1.7990   26.9590   10.8480 C   0  0  0  0  0  0  0  0  0  0  0  0
   -1.2160   28.1420   10.3240 C   0  0  0  0  0  0  0  0  0  0  0  0
   -3.8410   30.6100   11.3340 F   0  0  0  0  0  0  0  0  0  0  0  0
   -0.0180   28.0090    9.6920 F   0  0  0  0  0  0  0  0  0  0  0  0
    5.3350   22.9020    7.8250 C   0  0  1  0  0  0  0  0  0  0  0  0
    6.5250   22.6910    6.8600 C   0  0  0  0  0  0  0  0  0  0  0  0
    6.4350   21.5150    5.9360 N   0  0  0  0  0  0  0  0  0  0  0  0
    6.8330   20.2330    6.5790 C   0  0  0  0  0  0  0  0  0  0  0  0
    7.2220   21.7260    4.6860 C   0  0  0  0  0  0  0  0  0  0  0  0
    5.7560   22.8240    9.1850 O   0  0  0  0  0  0  0  0  0  0  0  0
  1  6  2  0  0  0  0
  1 14  1  0  0  0  0
  2 10  2  0  0  0  0
  2 11  1  0  0  0  0
  3  4  1  0  0  0  0
  3 11  2  0  0  0  0
  3 13  1  0  0  0  0
  4  5  2  0  0  0  0
  5 10  1  0  0  0  0
  5 12  1  0  0  0  0
  6  7  1  0  0  0  0
  6 13  1  0  0  0  0
  7  8  2  0  0  0  0
  8  9  1  0  0  0  0
  9 14  2  0  0  0  0
  9 15  1  0  0  0  0
 12 20  1  0  0  0  0
 15 16  1  0  0  0  0
 16 25  1  0  0  0  0
 17 18  2  0  0  0  0
 17 21  1  0  0  0  0
 18 19  1  0  0  0  0
 19 20  2  0  0  0  0
 19 23  1  0  0  0  0
 20 22  1  0  0  0  0
 21 22  2  0  0  0  0
 22 24  1  0  0  0  0
 25 26  1  0  0  0  0
 25 30  1  1  0  0  0
 26 27  1  0  0  0  0
 27 28  1  0  0  0  0
 27 29  1  0  0  0  0
M  END
>  <IX> 
2147

> <Type> 
L

$$$$
1h00_2
 OpenBabel04212516173D

 30 32  0  0  1  0  0  0  0  0999 V2000
    3.7950   28.5970    6.0100 C   0  0  0  0  0  0  0  0  0  0  0  0
    0.3260   33.1000    7.8560 C   0  0  0  0  0  0  0  0  0  0  0  0
    1.6140   31.1970    7.6890 C   0  0  0  0  0  0  0  0  0  0  0  0
    0.7130   30.5170    8.5790 C   0  0  0  0  0  0  0  0  0  0  0  0
   -0.4010   31.2770    9.0660 C   0  0  0  0  0  0  0  0  0  0  0  0
    3.4120   29.2380    7.2190 C   0  0  0  0  0  0  0  0  0  0  0  0
    3.6480   28.5750    8.4680 C   0  0  0  0  0  0  0  0  0  0  0  0
    4.2480   27.2990    8.5010 C   0  0  0  0  0  0  0  0  0  0  0  0
    4.6280   26.6560    7.2930 C   0  0  0  0  0  0  0  0  0  0  0  0
   -0.5690   32.5630    8.6890 N   0  0  0  0  0  0  0  0  0  0  0  0
    1.3960   32.4840    7.3450 N   0  0  0  0  0  0  0  0  0  0  0  0
   -1.3980   30.7320    9.9800 N   0  0  0  0  0  0  0  0  0  0  0  0
    2.7940   30.5570    7.1260 N   0  0  0  0  0  0  0  0  0  0  0  0
    4.3990   27.3140    6.0420 C   0  0  0  0  0  0  0  0  0  0  0  0
    5.2070   25.3980    7.4400 O   0  0  0  0  0  0  0  0  0  0  0  0
    4.4640   24.1590    7.6170 C   0  0  0  0  0  0  0  0  0  0  0  0
   -1.7340   27.4480   12.7920 C   0  0  0  0  0  0  0  0  0  0  0  0
   -2.8640   27.9370   12.0910 C   0  0  0  0  0  0  0  0  0  0  0  0
   -2.7310   29.0150   11.1770 C   0  0  0  0  0  0  0  0  0  0  0  0
   -1.4540   29.6170   10.9470 C   0  0  0  0  0  0  0  0  0  0  0  0
   -0.4620   28.0280   12.5840 C   0  0  0  0  0  0  0  0  0  0  0  0
   -0.3090   29.1050   11.6740 C   0  0  0  0  0  0  0  0  0  0  0  0
   -3.8490   29.4590   10.5210 F   0  0  0  0  0  0  0  0  0  0  0  0
    0.9450   29.6210   11.5160 F   0  0  0  0  0  0  0  0  0  0  0  0
    5.3960   22.9350    7.6620 C   0  0  2  0  0  0  0  0  0  0  0  0
    4.7670   21.5370    7.4440 C   0  0  0  0  0  0  0  0  0  0  0  0
    5.6170   20.3410    7.7610 N   0  0  0  0  0  0  0  0  0  0  0  0
    6.4420   19.8810    6.6120 C   0  0  0  0  0  0  0  0  0  0  0  0
    4.8050   19.2050    8.2910 C   0  0  0  0  0  0  0  0  0  0  0  0
    6.2510   22.9720    8.7540 O   0  0  0  0  0  0  0  0  0  0  0  0
  1  6  2  0  0  0  0
  1 14  1  0  0  0  0
  2 10  2  0  0  0  0
  2 11  1  0  0  0  0
  3  4  1  0  0  0  0
  3 11  2  0  0  0  0
  3 13  1  0  0  0  0
  4  5  2  0  0  0  0
  5 10  1  0  0  0  0
  5 12  1  0  0  0  0
  6  7  1  0  0  0  0
  6 13  1  0  0  0  0
  7  8  2  0  0  0  0
  8  9  1  0  0  0  0
  9 14  2  0  0  0  0
  9 15  1  0  0  0  0
 12 20  1  0  0  0  0
 15 16  1  0  0  0  0
 16 25  1  0  0  0  0
 17 18  2  0  0  0  0
 17 21  1  0  0  0  0
 18 19  1  0  0  0  0
 19 20  2  0  0  0  0
 19 23  1  0  0  0  0
 20 22  1  0  0  0  0
 21 22  2  0  0  0  0
 22 24  1  0  0  0  0
 25 26  1  0  0  0  0
 25 30  1  1  0  0  0
 26 27  1  0  0  0  0
 27 28  1  0  0  0  0
 27 29  1  0  0  0  0
M  END
>  <IX> 
2148

> <Type> 
L

$$$$
3qrt_1
 OpenBabel04212516173D

 28 30  0  0  1  0  0  0  0  0999 V2000
   92.4740   46.8970  -14.1860 N   0  0  0  0  0  0  0  0  0  0  0  0
   93.2020   46.1070  -15.0090 N   0  0  0  0  0  0  0  0  0  0  0  0
   91.2360   47.9650  -11.9720 N   0  0  0  0  0  0  0  0  0  0  0  0
   87.6810   44.6610   -6.2790 N   0  0  0  0  0  0  0  0  0  0  0  0
   93.9920   45.2340  -14.3410 C   0  0  0  0  0  0  0  0  0  0  0  0
   93.7790   45.4430  -12.9840 C   0  0  2  0  0  0  0  0  0  0  0  0
   92.8250   46.5050  -12.9360 C   0  0  0  0  0  0  0  0  0  0  0  0
   94.9170   44.2400  -14.9690 C   0  0  0  0  0  0  0  0  0  0  0  0
   95.8700   43.6200  -13.9030 C   0  0  0  0  0  0  0  0  0  0  0  0
   95.1440   43.3520  -12.5340 C   0  0  2  0  0  0  0  0  0  0  0  0
   94.4930   44.6480  -11.9180 C   0  0  0  0  0  0  0  0  0  0  0  0
   96.1350   42.7080  -11.5010 C   0  0  0  0  0  0  0  0  0  0  0  0
   92.3110   47.0960  -11.8130 C   0  0  0  0  0  0  0  0  0  0  0  0
   90.6030   48.7110  -10.8700 C   0  0  0  0  0  0  0  0  0  0  0  0
   89.6530   47.9030  -10.0270 C   0  0  0  0  0  0  0  0  0  0  0  0
   88.9980   48.5660   -8.9700 C   0  0  0  0  0  0  0  0  0  0  0  0
   88.1100   47.8620   -8.1390 C   0  0  0  0  0  0  0  0  0  0  0  0
   87.8840   46.4930   -8.3760 C   0  0  0  0  0  0  0  0  0  0  0  0
   88.5310   45.8110   -9.4310 C   0  0  0  0  0  0  0  0  0  0  0  0
   89.4190   46.5170  -10.2610 C   0  0  0  0  0  0  0  0  0  0  0  0
   97.2490   43.6760  -11.0840 C   0  0  0  0  0  0  0  0  0  0  0  0
   96.7870   41.4820  -12.1210 C   0  0  0  0  0  0  0  0  0  0  0  0
   95.3660   42.2970  -10.2440 C   0  0  0  0  0  0  0  0  0  0  0  0
   94.2120   41.3330  -10.5580 C   0  0  0  0  0  0  0  0  0  0  0  0
   92.7860   46.9000  -10.7000 O   0  0  0  0  0  0  0  0  0  0  0  0
   85.9830   46.5740   -6.5840 O   0  0  0  0  0  0  0  0  0  0  0  0
   85.9530   44.7970   -8.1760 O   0  0  0  0  0  0  0  0  0  0  0  0
   86.7840   45.6130   -7.3470 S   0  0  0  0  0  0  0  0  0  0  0  0
  1  2  1  0  0  0  0
  1  7  2  0  0  0  0
  2  5  2  0  0  0  0
  3 13  1  0  0  0  0
  3 14  1  0  0  0  0
  4 28  1  0  0  0  0
  5  6  1  0  0  0  0
  5  8  1  0  0  0  0
  6  7  1  0  0  0  0
  6 11  1  1  0  0  0
  7 13  1  0  0  0  0
  8  9  1  0  0  0  0
  9 10  1  0  0  0  0
 10 11  1  0  0  0  0
 10 12  1  1  0  0  0
 12 21  1  0  0  0  0
 12 22  1  0  0  0  0
 12 23  1  0  0  0  0
 13 25  2  0  0  0  0
 14 15  1  0  0  0  0
 15 16  1  0  0  0  0
 15 20  2  0  0  0  0
 16 17  2  0  0  0  0
 17 18  1  0  0  0  0
 18 19  2  0  0  0  0
 18 28  1  0  0  0  0
 19 20  1  0  0  0  0
 23 24  1  0  0  0  0
 26 28  2  0  0  0  0
 27 28  2  0  0  0  0
M  END
>  <IX> 
2149

> <Type> 
L

$$$$
3r7i_1
 OpenBabel04212516173D

 23 24  0  0  0  0  0  0  0  0999 V2000
   94.8780   80.5520  -47.6560 C   0  0  0  0  0  0  0  0  0  0  0  0
   96.1730   80.1160  -47.3920 N   0  0  0  0  0  0  0  0  0  0  0  0
   96.4830   79.5410  -46.2230 O   0  0  0  0  0  0  0  0  0  0  0  0
   94.5640   81.1620  -48.9120 C   0  0  0  0  0  0  0  0  0  0  0  0
   93.7320   81.7890  -51.6320 N   0  0  0  0  0  0  0  0  0  0  0  0
   97.1470   80.2600  -48.3020 O   0  0  0  0  0  0  0  0  0  0  0  0
   93.2420   81.6130  -49.2140 C   0  0  0  0  0  0  0  0  0  0  0  0
   90.9340   81.8800  -48.5380 N   0  0  0  0  0  0  0  0  0  0  0  0
   92.0890   83.1530  -50.7040 O   0  0  0  0  0  0  0  0  0  0  0  0
   92.1670   81.4600  -48.2370 C   0  0  0  0  0  0  0  0  0  0  0  0
   92.5170   80.8360  -46.9590 C   0  0  0  0  0  0  0  0  0  0  0  0
   93.8400   80.3990  -46.6890 C   0  0  0  0  0  0  0  0  0  0  0  0
   93.0270   82.2130  -50.5560 C   0  0  0  0  0  0  0  0  0  0  0  0
   89.7200   81.7520  -47.7270 C   0  0  0  0  0  0  0  0  0  0  0  0
   89.5870   82.7530  -46.6180 C   0  0  0  0  0  0  0  0  0  0  0  0
   89.4420   82.2920  -45.2820 C   0  0  0  0  0  0  0  0  0  0  0  0
   89.3030   83.2150  -44.2170 C   0  0  0  0  0  0  0  0  0  0  0  0
   89.3030   84.6290  -44.4620 C   0  0  0  0  0  0  0  0  0  0  0  0
   89.4520   85.0920  -45.8250 C   0  0  0  0  0  0  0  0  0  0  0  0
   89.5920   84.1580  -46.8880 C   0  0  0  0  0  0  0  0  0  0  0  0
   89.1480   85.5290  -43.3080 C   0  0  0  0  0  0  0  0  0  0  0  0
   89.0240   85.0410  -42.1530 O   0  0  0  0  0  0  0  0  0  0  0  0
   89.1450   86.7580  -43.5240 O   0  0  0  0  0  0  0  0  0  0  0  0
  1  2  1  0  0  0  0
  1  4  1  0  0  0  0
  1 12  2  0  0  0  0
  2  3  2  0  0  0  0
  2  6  2  0  0  0  0
  4  7  2  0  0  0  0
  5 13  1  0  0  0  0
  7 10  1  0  0  0  0
  7 13  1  0  0  0  0
  8 10  1  0  0  0  0
  8 14  1  0  0  0  0
  9 13  2  0  0  0  0
 10 11  2  0  0  0  0
 11 12  1  0  0  0  0
 14 15  1  0  0  0  0
 15 16  1  0  0  0  0
 15 20  2  0  0  0  0
 16 17  2  0  0  0  0
 17 18  1  0  0  0  0
 18 19  2  0  0  0  0
 18 21  1  0  0  0  0
 19 20  1  0  0  0  0
 21 22  2  0  0  0  0
 21 23  2  0  0  0  0
M  END
>  <IX> 
2150

> <Type> 
L

$$$$
