REMARK  12 active torsions:
REMARK  status: ('A' for Active; 'I' for Inactive)
REMARK    1  A    between atoms: N3_2  and  C20_12 
REMARK    2  A    between atoms: N3_2  and  C1_29 
REMARK    3  A    between atoms: C4_3  and  C12_34 
REMARK    4  A    between atoms: C5_4  and  C3_30 
REMARK    5  A    between atoms: C17_11  and  C16_37 
REMARK    6  A    between atoms: C17_11  and  C18_38 
REMARK    7  A    between atoms: C20_12  and  C21_13 
REMARK    8  A    between atoms: C21_13  and  N6_28 
REMARK    9  A    between atoms: S1_19  and  C30_21 
REMARK   10  A    between atoms: S1_19  and  N6_28 
REMARK   11  A    between atoms: N5_36  and  C16_37 
REMARK   12  A    between atoms: C18_38  and  O1_39 
ROOT
ATOM      1  N1  LIX d   1     -26.022   1.253  -7.275  0.00  0.00    -0.039 NA
ATOM      2  C4  LIX d   1     -24.171   0.990  -8.799  0.00  0.00     0.050 A 
ATOM      3  C1  LIX d   1     -25.191   0.396  -7.881  0.00  0.00     0.178 A 
ATOM      4  C3  LIX d   1     -24.175   2.464  -8.956  0.00  0.00     0.080 A 
ATOM      5  N2  LIX d   1     -25.085   3.187  -8.254  0.00  0.00    -0.062 NA
ATOM      6  C2  LIX d   1     -25.999   2.589  -7.471  0.00  0.00     0.769 A 
ATOM      7  N4  LIX d   1     -26.900   3.347  -6.814  0.00  0.00     0.062 N 
ENDROOT
BRANCH   3   8
ATOM      8  N3  LIX d   1     -25.285  -0.941  -7.654  0.00  0.00    -0.250 NA
BRANCH   8   9
ATOM      9  C20 LIX d   1     -26.282  -1.531  -6.796  0.00  0.00     0.154 C 
BRANCH   9  10
ATOM     10  C21 LIX d   1     -26.495  -3.005  -7.134  0.00  0.00     0.165 C 
BRANCH  10  11
ATOM     11  N6  LIX d   1     -26.828  -3.148  -8.550  0.00  0.00    -0.183 NA
BRANCH  11  12
ATOM     12  S1  LIX d   1     -25.804  -3.644  -9.686  0.00  0.00     0.281 S 
ATOM     13  O5  LIX d   1     -24.438  -3.305  -9.451  0.00  0.00    -0.199 OA
ATOM     14  O4  LIX d   1     -26.265  -2.968 -10.873  0.00  0.00    -0.199 OA
BRANCH  12  15
ATOM     15  C30 LIX d   1     -25.763  -5.226  -9.968  0.00  0.00     0.105 A 
ATOM     16  C29 LIX d   1     -25.299  -6.096  -8.985  0.00  0.00     0.013 A 
ATOM     17  C25 LIX d   1     -25.231  -7.462  -9.235  0.00  0.00     0.001 A 
ATOM     18  C24 LIX d   1     -24.792  -8.357  -8.269  0.00  0.00     0.000 A 
ATOM     19  C26 LIX d   1     -25.646  -7.987 -10.566  0.00  0.00     0.000 A 
ATOM     20  C23 LIX d   1     -24.746  -9.724  -8.555  0.00  0.00     0.000 A 
ATOM     21  C28 LIX d   1     -25.131 -10.209  -9.816  0.00  0.00     0.000 A 
ATOM     22  C27 LIX d   1     -25.581  -9.354 -10.815  0.00  0.00     0.000 A 
ATOM     23  C32 LIX d   1     -26.084  -7.096 -11.531  0.00  0.00     0.001 A 
ATOM     24  C31 LIX d   1     -26.126  -5.732 -11.232  0.00  0.00     0.013 A 
ENDBRANCH  12  15
ENDBRANCH  11  12
ENDBRANCH  10  11
ENDBRANCH   9  10
ENDBRANCH   8   9
ENDBRANCH   3   8
BRANCH   2  25
ATOM     25  C12 LIX d   1     -23.231   0.143  -9.577  0.00  0.00     0.006 A 
ATOM     26  C7  LIX d   1     -21.908  -0.074  -9.270  0.00  0.00     0.002 A 
ATOM     27  C8  LIX d   1     -21.163  -0.882 -10.133  0.00  0.00     0.026 A 
ATOM     28  C9  LIX d   1     -21.723  -1.451 -11.259  0.00  0.00     0.110 A 
ATOM     29  C10 LIX d   1     -23.042  -1.218 -11.620  0.00  0.00     0.085 A 
ATOM     30  O2  LIX d   1     -20.944  -2.223 -12.067  0.00  0.00    -0.325 OA
ATOM     31  C11 LIX d   1     -23.787  -0.407 -10.749  0.00  0.00     0.019 A 
ATOM     32  N5  LIX d   1     -23.580  -1.822 -12.798  0.00  0.00    -0.295 N 
ATOM     33  C15 LIX d   1     -22.857  -2.755 -13.445  0.00  0.00     0.262 C 
ATOM     34  O3  LIX d   1     -23.197  -3.283 -14.489  0.00  0.00    -0.269 OA
ATOM     35  C14 LIX d   1     -21.569  -3.251 -12.816  0.00  0.00     0.169 C 
ATOM     36  C13 LIX d   1     -20.583  -3.668 -13.913  0.00  0.00     0.040 C 
ATOM     37  C22 LIX d   1     -21.940  -4.403 -11.860  0.00  0.00     0.040 C 
BRANCH  32  38
ATOM     38  C16 LIX d   1     -24.929  -1.479 -13.222  0.00  0.00     0.112 C 
BRANCH  38  39
ATOM     39  C17 LIX d   1     -25.013  -0.147 -13.951  0.00  0.00     0.057 C 
BRANCH  39  40
ATOM     40  C18 LIX d   1     -26.471   0.118 -14.209  0.00  0.00     0.144 C 
BRANCH  40  41
ATOM     41  O1  LIX d   1     -26.647   1.195 -15.129  0.00  0.00    -0.351 OA
ATOM     42  C19 LIX d   1     -28.001   1.679 -15.063  0.00  0.00     0.174 C 
ENDBRANCH  40  41
ENDBRANCH  39  40
ENDBRANCH  38  39
ENDBRANCH  32  38
ENDBRANCH   2  25
BRANCH   4  43
ATOM     43  C5  LIX d   1     -23.217   3.195  -9.872  0.00  0.00     0.047 C 
ATOM     44  C6  LIX d   1     -23.838   3.396 -11.228  0.00  0.00     0.007 C 
ENDBRANCH   4  43
TORSDOF 12
